<?xml version="1.0" encoding="UTF-8"?>

<!-- generated on 06/02/18 13:22:33 by SUMO duarouter Version 0.25.0
<?xml version="1.0" encoding="UTF-8"?>

<configuration xmlns:xsi="http://www.w3.org/2001/XMLSchema-instance" xsi:noNamespaceSchemaLocation="http://sumo.dlr.de/xsd/duarouterConfiguration.xsd">

    <input>
        <net-file value="amirkabir.net.xml"/>
        <trip-files value="trips.trips.xml"/>
    </input>

    <output>
        <output-file value="amirkabirNew.rou.xml"/>
    </output>

    <processing>
        <ignore-errors value="true"/>
    </processing>

    <time>
        <begin value="0"/>
        <end value="800.0"/>
    </time>

    <report>
        <no-warnings value="true"/>
        <no-step-log value="true"/>
    </report>

</configuration>
-->

<routes xmlns:xsi="http://www.w3.org/2001/XMLSchema-instance" xsi:noNamespaceSchemaLocation="http://sumo.dlr.de/xsd/routes_file.xsd">
    <vehicle id="0" depart="0.00">
        <route edges="425049540#1"/>
    </vehicle>
    <vehicle id="8" depart="8.00">
        <route edges="4318808#0 4318808#1 16284720#3 16284720#4 16284720#5 16284720#6 16284720#7 16284720#8 433012747#2 36326642#5 36326642#6 36326642#7 36326642#8 36326642#9 36326642#10 36326642#11 36326642#12 36326642#13 36326642#14 36326642#15 36326642#16 36326642#17 387347115#4"/>
    </vehicle>
    <vehicle id="14" depart="14.00">
        <route edges="-467203510#0 380240716#4 380240716#5 380240716#6 463301832#1 71881371#1 71881371#2 71881371#3 71881371#4 71881371#5 71881371#6 71881371#7 71881371#8 71881371#9 71881371#10 456458233#6 456458233#7 -5003754#2 -5003754#1 -5003754#0 4318811#1 4318811#2 4318811#3 4318811#4 36326642#0 36326642#1 36326642#2 36326642#3 36326642#4 36326642#5 36326642#6 36326642#7 36326642#8 36326642#9 36326642#10 36326642#11 36326642#12 36326664#0 36326664#1 36326664#2 191541062#0 -191541077#1 467488051"/>
    </vehicle>
    <vehicle id="15" depart="15.00">
        <route edges="157934978#1 157934978#2 470480593 463299695#0 210304183#4 210304183#5 210304100#1 210304100#2 210304100#3 210304100#4 210304100#5 210304100#6 456458234#0 382662228#4 382662228#5 382662228#6 380240519#6 456458152#0 456458152#1"/>
    </vehicle>
    <vehicle id="20" depart="20.00">
        <route edges="4318808#2 4318808#3 4318811#4 36326642#0 36326642#1 36326642#2 36326642#3 36326642#4 36326642#5 36326642#6 36326642#7 36326642#8 36326642#9 36326642#10 36326642#11 36326642#12 36326642#13 36326642#14 36326642#15 36326642#16 36326642#17 36326642#18 36326642#19 380240519#3 380240519#4 380240519#5 382662228#7 382662228#8 382662228#9 382662228#10 382662228#11"/>
    </vehicle>
    <vehicle id="21" depart="21.00">
        <route edges="382662228#0 5003754#2 380240716#0 380240716#1 380240716#2 380240716#3 380240716#4 380240716#5 380240716#6 380240716#7 380240716#8 157934984#3 157934984#4"/>
    </vehicle>
    <vehicle id="26" depart="26.00">
        <route edges="157934985#7 210304183#2 210304183#3 463299695#1 210304179#2 210304104#1 210304104#2 210304104#3 194291013#0 194291013#1"/>
    </vehicle>
    <vehicle id="27" depart="27.00">
        <route edges="191540158 4318808#1 16284720#3 16284720#4 16284720#5 16284720#6 16284720#7 16284720#8 433012747#2 36326642#5 36326642#6 36326642#7 36326642#8 36326642#9 191542141"/>
    </vehicle>
    <vehicle id="31" depart="31.00">
        <route edges="161072040 161072041 470482419 463299695#0 210304183#4 210304183#5 210304100#1 210304100#2 210304100#3 210304100#4 210304100#5 210304100#6 456458234#0 456458234#1 456458234#2 456458234#3 456458234#4"/>
    </vehicle>
    <vehicle id="38" depart="38.00">
        <route edges="380240519#0 380240519#1 380240519#2 380240519#3 380240519#4 380240519#5 -382662228#6 387347114#3 456458153#1 456458153#2 456458233#0 456458233#1 456458233#2 456458233#3 456458233#4 456458233#5 456458233#6 456458233#7 -5003754#2 -5003754#1 -5003754#0 4318811#1 4318811#2 59276963#0"/>
    </vehicle>
    <vehicle id="39" depart="39.00">
        <route edges="191539788 161072166#1 380240716#1 380240716#2 380240716#3 380240716#4 380240716#5 380240716#6 463301832#1 463301832#2 463303145 463299695#0 210304183#4 210304183#5 210304100#1 210304100#2 210304100#3 210304100#4 210304100#5 210304100#6 456458234#0 382662228#4 382662228#5 382662228#6 380240519#6 456458152#0 456458152#1 456458152#2 456458152#3 456458152#4 456458152#5"/>
    </vehicle>
    <vehicle id="41" depart="41.00">
        <route edges="-157934984#3 -157934984#2 -157934984#1 -157934984#0 467452783#3 467452783#4 467452783#5 463303146 463303145 463299695#0 210304183#4 210304183#5 210304100#1 210304100#2 210304100#3 210304100#4 210304100#5 210304100#6 456458233#0 456458233#1 456458233#2 456458233#3 456458233#4 -433012747#5 -382662228#1"/>
    </vehicle>
    <vehicle id="43" depart="43.00">
        <route edges="165214618#1 157934980#1 157934985#7 210304183#2 210304183#3 210304183#4 210304183#5 210304100#1 210304100#2 210304100#3 210304100#4 210304100#5 210304100#6 456458234#0 456458234#1 456458234#2 456458234#3 456458234#4"/>
    </vehicle>
    <vehicle id="44" depart="44.00">
        <route edges="-16284720#2 16284720#2 16284720#3 16284720#4 16284720#5 16284720#6 16284720#7 16284720#8 433012747#2 36326642#5 36326642#6 191541063"/>
    </vehicle>
    <vehicle id="45" depart="45.00">
        <route edges="463518873 -463518873 470482605#3 463301830 463303144#0 463303144#1 380240716#8 157934984#3"/>
    </vehicle>
    <vehicle id="47" depart="47.00">
        <route edges="485559470#2 485559470#3 485559470#4 456458153#0 456458153#1 387347115#2 -382662228#4 456458234#1 456458234#2 456458234#3 36326642#17 36326642#18 36326642#19 380240519#3 -461984372"/>
    </vehicle>
    <vehicle id="48" depart="48.00">
        <route edges="382662228#11 -382662228#11 -382662228#10 -382662228#9 -382662228#8 -382662228#7 -382662228#6 387347114#3 456458153#1 456458153#2 456458233#0 456458233#1 456458233#2 456458233#3 456458233#4 456458233#5 456458233#6 456458233#7 380240716#0 380240716#1 380240716#2 380240716#3 380240716#4 380240716#5 380240716#6 380240716#7 380240716#8 -157934984#2 -157934984#1 -157934984#0 467452783#3 157934985#0 157934985#1 463518872#1"/>
    </vehicle>
    <vehicle id="49" depart="49.00">
        <route edges="-382662228#12 -382662228#11 -382662228#10 -382662228#9 -382662228#8 -382662228#7 -382662228#6 387347114#3 456458153#1 456458153#2 456458233#0 456458233#1 456458233#2 456458233#3 456458233#4 456458233#5 456458233#6 456458233#7 380240716#0 380240716#1 380240716#2 380240716#3 380240716#4 380240716#5 380240716#6 380240716#7 380240716#8 -157934984#2 -157934984#1 -157934984#0 467452783#3 467452783#4 466717919 -466717919"/>
    </vehicle>
    <vehicle id="50" depart="50.00">
        <route edges="382662228#1 433012747#5 456458233#5 456458233#6 456458233#7 -5003754#2 -5003754#1 -5003754#0 4318811#1 4318811#2 4318811#3 -4318808#3 467488894"/>
    </vehicle>
    <vehicle id="51" depart="51.00">
        <route edges="382662228#11 -382662228#11 -382662228#10 -382662228#9 -382662228#8 -382662228#7 -382662228#6 -382662228#5 -382662228#4 456458234#1 456458234#2 456458234#3 36326642#17 36326642#18 36326642#19 36326642#20"/>
    </vehicle>
    <vehicle id="53" depart="53.00">
        <route edges="4297761 433012747#0 433012747#1 433012747#2 36326642#5 36326642#6 36326642#7 36326642#8 36326642#9 36326642#10 36326642#11 36326642#12 36326642#13 36326642#14 36326642#15 36326642#16 36326642#17 36326642#18 36326642#19 380240519#3 380240519#4 380240519#5 380240519#6 456458152#0 456458152#1 456458152#2 456458152#3 456458152#4 456458152#5 210304097 210304104#0 35103852"/>
    </vehicle>
    <vehicle id="54" depart="54.00">
        <route edges="380240519#0 380240519#1 380240519#2 380240519#3 380240519#4 380240519#5 -382662228#6 387347114#3 456458153#1 456458153#2 456458233#0 456458233#1 456458233#2 456458233#3 456458233#4 -433012747#5 -433012747#4 -433012747#3 -433012747#2 -16284720#8 -16284720#7 -16284720#6 -433012750 433012749#0 433012749#1 -191541383"/>
    </vehicle>
    <vehicle id="55" depart="55.00">
        <route edges="382662228#11 -382662228#11 -382662228#10 -382662228#9 -382662228#8 -382662228#7 -382662228#6 387347114#3 456458153#1 456458153#2 456458233#0 456458233#1 456458233#2 456458233#3 456458233#4 456458233#5 456458233#6 456458233#7 380240716#0 380240716#1 380240716#2 380240716#3 380240716#4 380240716#5 380240716#6 380240716#7 380240716#8 380240716#9"/>
    </vehicle>
    <vehicle id="59" depart="59.00">
        <route edges="380240716#8 -157934984#2 -157934984#1 -157934984#0 467452783#3 157934985#0 157934985#1 157934985#2 157934985#3 157934985#4 157934985#5 157934985#6 157934978#0"/>
    </vehicle>
    <vehicle id="61" depart="61.00">
        <route edges="485559470#1 485559470#2 485559470#3 485559470#4 456458152#0 456458152#1 456458152#2 456458152#3 456458152#4 456458152#5 210304097 210304104#0 210304104#1 210304104#2 210304104#3 210304104#4"/>
    </vehicle>
    <vehicle id="63" depart="63.00">
        <route edges="-467485539 442236421#3 456458233#3 456458233#4 -433012747#5 -433012747#4 -433012747#3 -433012747#2 -16284720#8 -16284720#7 -16284720#6 -16284720#5 -16284720#4 -16284720#3 -4318808#1 -4318808#0"/>
    </vehicle>
    <vehicle id="67" depart="67.00">
        <route edges="456458233#4 456458233#5 456458233#6 456458233#7 -5003754#2 382662228#1"/>
    </vehicle>
    <vehicle id="68" depart="68.00">
        <route edges="425049540#0 425049540#1 425049540#2 425049540#3 4318811#2 4318811#3 4318811#4 4318811#5 4318811#0 5003754#0 5003754#1 5003754#2 380240716#0 380240716#1 380240716#2 380240716#3 380240716#4 380240716#5 380240716#6 380240716#7 380240716#8 380240716#9"/>
    </vehicle>
    <vehicle id="69" depart="69.00">
        <route edges="4516015#8 467452783#3 467452783#4 467452783#5 463303144#0 71881371#0 71881371#1 71881371#2 71881371#3 71881371#4 71881371#5 71881371#6 71881371#7 71881371#8 71881371#9 71881371#10 456458233#6 456458233#7 380240716#0 380240716#1 380240716#2 380240716#3 380240716#4 380240716#5 380240716#6 463301832#1"/>
    </vehicle>
    <vehicle id="71" depart="71.00">
        <route edges="387347115#0 387347115#1 456458153#2 456458233#0 456458233#1 456458233#2 456458233#3 456458233#4 456458233#5 456458233#6 456458233#7 380240716#0 380240716#1 380240716#2 380240716#3 380240716#4 380240716#5 380240716#6 380240716#7 380240716#8 380240716#9"/>
    </vehicle>
    <vehicle id="72" depart="72.00">
        <route edges="463518872#1 -463518872#1 157934985#2 157934985#3 157934985#4 157934985#5 157934985#6 157934985#7 210304183#2 210304183#3 210304183#4 210304183#5 210304100#1 210304100#2 210304100#3 210304100#4 210304100#5 210304100#6 456458234#0 382662228#4 382662228#5 382662228#6 382662228#7 382662228#8"/>
    </vehicle>
    <vehicle id="78" depart="78.00">
        <route edges="387347115#0 387347115#1 456458153#2 456458233#0 456458233#1 456458233#2 456458233#3 456458233#4 456458233#5 456458233#6 456458233#7 380240716#0 380240716#1 380240716#2 380240716#3 380240716#4 380240716#5 380240716#6 380240716#7 380240716#8 157934984#3 157934984#4"/>
    </vehicle>
    <vehicle id="80" depart="80.00">
        <route edges="467452783#2 467452783#3 467452783#4 467452783#5 463303146 463303145 463299695#0 210304183#4 210304183#5 210304100#1 210304100#2 210304100#3 210304100#4 210304100#5 210304100#6 456458234#0 456458234#1 456458234#2 456458234#3 456458234#4"/>
    </vehicle>
    <vehicle id="81" depart="81.00">
        <route edges="456458233#1 456458233#2 456458233#3 456458233#4 -433012747#5 -433012747#4 -433012747#3 36326642#5 36326642#6 36326642#7 36326642#8 36326642#9 36326642#10 36326642#11 36326642#12 36326642#13 36326642#14 36326642#15 36326642#16 36326642#17 36326642#18 36326642#19 380240519#3 380240519#4 380240519#5 382662228#7 382662228#8 382662228#9 382662228#10"/>
    </vehicle>
    <vehicle id="82" depart="82.00">
        <route edges="387347115#3 36326642#18 36326642#19 380240519#3 380240519#4 380240519#5 -382662228#6 387347114#3 456458153#1 456458153#2 456458233#0 456458233#1 456458233#2 456458233#3 456458233#4 456458233#5 456458233#6 456458233#7 456458233#8 191539788"/>
    </vehicle>
    <vehicle id="83" depart="83.00">
        <route edges="387347115#3 36326642#18 36326642#19 380240519#3 380240519#4 380240519#5 382662228#7 382662228#8 382662228#9 382662228#10 382662228#11 -382662228#11"/>
    </vehicle>
    <vehicle id="84" depart="84.00">
        <route edges="380240519#0 380240519#1 380240519#2 380240519#3 380240519#4 380240519#5 -382662228#6 387347114#3 456458153#1 456458153#2 456458233#0 456458233#1 456458233#2 456458233#3 456458233#4 456458233#5 456458233#6 456458233#7 380240716#0 380240716#1 380240716#2 380240716#3 380240716#4 380240716#5 380240716#6 463301832#1 463301832#2 463303145"/>
    </vehicle>
    <vehicle id="85" depart="85.00">
        <route edges="-464583139 36326642#8 36326642#9 36326642#10 36326642#11 36326642#12 36326642#13 36326642#14 36326642#15 36326642#16 36326642#17 36326642#18 36326642#19 380240519#3 380240519#4 380240519#5 -382662228#6 387347114#3 456458153#1 456458153#2 456458233#0 456458233#1 456458233#2 456458233#3 456458233#4 456458233#5 456458233#6 456458233#7 380240716#0 380240716#1 380240716#2 380240716#3 380240716#4 380240716#5 380240716#6 380240716#7 380240716#8 -157934984#2 -157934984#1 -157934984#0 467452783#3 157934985#0 157934985#1 157934985#2 157934985#3 157934985#4 157934985#5 157934985#6 157934985#7 210304183#2 466718969#0 466718969#1 466718969#2"/>
    </vehicle>
    <vehicle id="87" depart="87.00">
        <route edges="71881371#5 71881371#6 71881371#7 71881371#8 71881371#9 71881371#10 456458233#6 456458233#7 380240716#0 380240716#1 380240716#2 380240716#3 380240716#4 380240716#5 380240716#6 380240716#7 380240716#8 380240716#9"/>
    </vehicle>
    <vehicle id="88" depart="88.00">
        <route edges="387347114#0 36326642#19 380240519#3 380240519#4 380240519#5 380240519#6 456458152#0 456458152#1 456458152#2 456458152#3 456458152#4 456458152#5 210304097 210304104#0 210304104#1 210304104#2 387347116"/>
    </vehicle>
    <vehicle id="89" depart="89.00">
        <route edges="157934986 157934985#6 157934985#7 210304183#2 210304183#3 210304183#4 210304183#5 210304100#1 210304100#2 210304100#3 210304100#4 210304100#5 210304100#6 456458233#0 456458233#1 456458233#2 456458233#3 456458233#4 -433012747#5 -433012747#4 -433012747#3 36326642#5 36326642#6"/>
    </vehicle>
    <vehicle id="90" depart="90.00">
        <route edges="191541061 36326642#11 36326642#12 36326642#13 36326642#14 36326642#15 36326642#16 36326642#17 36326642#18 36326642#19 380240519#3 380240519#4 380240519#5 -382662228#6 387347114#3 456458153#1 456458153#2 456458233#0 456458233#1 456458233#2 456458233#3 456458233#4 456458233#5 456458233#6 456458233#7 380240716#0 380240716#1 380240716#2 380240716#3 380240716#4 380240716#5 380240716#6 463301832#1 463301832#2 463303145 463299695#0 210304183#4 210304183#5 210304100#1 210304100#2 -181526861#2 -181526861#1 467485530#0 467485530#1"/>
    </vehicle>
    <vehicle id="93" depart="93.00">
        <route edges="387347114#4 456458152#4 456458152#5 210304097 210304104#0 35103852"/>
    </vehicle>
    <vehicle id="95" depart="95.00">
        <route edges="157934985#7"/>
    </vehicle>
    <vehicle id="96" depart="96.00">
        <route edges="191539788 161072166#1 380240716#1 380240716#2 380240716#3 380240716#4 380240716#5 380240716#6 463301832#1 71881371#1 71881371#2 71881371#3 71881371#4 71881371#5"/>
    </vehicle>
    <vehicle id="103" depart="103.00">
        <route edges="468419433 71881371#6 71881371#7 71881371#8 71881371#9 71881371#10 456458233#6 456458233#7 380240716#0 380240716#1 380240716#2 380240716#3 380240716#4 380240716#5 380240716#6 463301832#1 463301832#2 463303145 463299695#0 210304183#4 210304183#5 210304100#1 210304100#2 -181526861#2 -181526861#1 467485530#0 -467485530#0"/>
    </vehicle>
    <vehicle id="105" depart="105.00">
        <route edges="308260350#0 308260350#1 308260351 467452783#2 467452783#3 467452783#4 467452783#5 463303146 463303145"/>
    </vehicle>
    <vehicle id="107" depart="107.00">
        <route edges="380240716#8 -157934984#2 -157934984#1 -157934984#0 467452783#3 467452783#4 467452783#5 463303144#0 71881371#0 71881371#1 71881371#2 71881371#3 71881371#4 71881371#5 71881371#6 71881371#7 71881371#8 71881371#9 71881371#10 456458233#6 456458233#7 -5003754#2 -5003754#1 -5003754#0 4318811#1 4318811#2 4318811#3 4318811#4 36326642#0 36326642#1 36326642#2 36326642#3 36326642#4 -433012747#2 -433012747#1 -433012747#0 433012748#0 433012748#1 -191541063"/>
    </vehicle>
    <vehicle id="109" depart="109.00">
        <route edges="161072040 161072041 470482419 463299695#0 210304183#4 210304183#5 210304100#1 210304100#2 210304100#3 210304100#4 210304100#5 210304100#6 456458233#0 456458233#1 456458233#2 456458233#3 456458233#4 456458233#5 456458233#6 456458233#7 -5003754#2 -5003754#1 -5003754#0 5003754#0"/>
    </vehicle>
    <vehicle id="111" depart="111.00">
        <route edges="-466717924 157934985#4 -463518874 470482605#2 470482605#3 463518872#0 -463518872#0"/>
    </vehicle>
    <vehicle id="112" depart="112.00">
        <route edges="38682897#1 38682897#2 38682897#3 4516015#0 4516015#1 4516015#2 4516015#3 466717928"/>
    </vehicle>
    <vehicle id="115" depart="115.00">
        <route edges="456458233#7 -5003754#2 -5003754#1 -5003754#0 4318811#1 4318811#2 4318811#3 4318811#4 36326642#0 36326642#1 36326642#2 36326642#3 36326642#4 36326642#5 36326642#6 36326642#7 36326642#8 36326642#9 36326642#10 36326642#11 36326642#12 36326642#13 36326642#14 36326642#15 36326642#16 36326642#17 36326642#18 387347114#1"/>
    </vehicle>
    <vehicle id="118" depart="118.00">
        <route edges="466718969#2 157934978#2 470480593 463299695#0 210304183#4 210304183#5 210304100#1 210304100#2 210304100#3 210304100#4 210304100#5 210304100#6 456458233#0 456458233#1 456458233#2 456458233#3 456458233#4 -433012747#5 -433012747#4 -433012747#3 -433012747#2 -433012747#1 -433012747#0 433012748#0 -191541105"/>
    </vehicle>
    <vehicle id="120" depart="120.00">
        <route edges="4318808#3 4318811#4 36326642#0 36326642#1 36326642#2 36326642#3 36326642#4 36326642#5 36326642#6 36326642#7 36326642#8 36326642#9 36326642#10 36326642#11 36326642#12 36326642#13 36326642#14 36326642#15 36326642#16 36326642#17 36326642#18 36326642#19 36326642#20"/>
    </vehicle>
    <vehicle id="124" depart="124.00">
        <route edges="-382662228#10 -382662228#9 -382662228#8 -382662228#7 -382662228#6 387347114#3 456458153#1 456458153#2 456458233#0 456458233#1 456458233#2 456458233#3 456458233#4 456458233#5 456458233#6 456458233#7 380240716#0 380240716#1 380240716#2 380240716#3 380240716#4 380240716#5 380240716#6 380240716#7 380240716#8 380240716#9"/>
    </vehicle>
    <vehicle id="127" depart="127.00">
        <route edges="4318808#0 4318808#1 4318808#2 4318808#3 4318811#4 4318811#5 4318811#0 5003754#0 5003754#1 5003754#2 380240716#0 380240716#1 380240716#2 380240716#3 380240716#4 380240716#5 380240716#6 463301832#1 463301832#2 463303145 463299695#0 210304183#4 210304183#5 210304100#1 210304100#2 -181526861#2 -181526861#1 -181526861#0"/>
    </vehicle>
    <vehicle id="129" depart="129.00">
        <route edges="380240519#0 380240519#1 380240519#2 380240519#3 380240519#4 380240519#5 -382662228#6 387347114#3 456458153#1 456458153#2 456458233#0 456458233#1 456458233#2 456458233#3 456458233#4 -433012747#5 -433012747#4 -433012747#3 36326642#5 36326642#6 191541063"/>
    </vehicle>
    <vehicle id="130" depart="130.00">
        <route edges="-157934984#4 -157934984#3 -157934984#2 -157934984#1 -157934984#0 467452783#3 467452783#4 467452783#5 463303144#0 71881371#0 71881371#1 71881371#2 71881371#3 71881371#4 71881371#5 71881371#6 71881371#7 71881371#8 71881371#9 71881371#10 456458233#6 456458233#7 380240716#0 380240716#1 380240716#2 380240716#3 380240716#4 380240716#5 -467203514#1"/>
    </vehicle>
    <vehicle id="133" depart="133.00">
        <route edges="-157934984#0 467452783#3 467452783#4 467452783#5 463303146 463303145 463299695#0 210304183#4 210304183#5 210304100#1 210304100#2 210304100#3 210304100#4 210304100#5 210304100#6 456458234#0 382662228#4 382662228#5 382662228#6 382662228#7 382662228#8 382662228#9 382662228#10 382662228#11"/>
    </vehicle>
    <vehicle id="135" depart="135.00">
        <route edges="-466717924 157934985#4 157934985#5 157934985#6 157934985#7 210304183#2 210304183#3 210304183#4 210304183#5 210304100#1 210304100#2 210304100#3 210304100#4 210304100#5 210304100#6 456458234#0 382662228#4 382662228#5 382662228#6 382662228#7 382662228#8 382662228#9 382662228#10 382662228#11 -382662228#11"/>
    </vehicle>
    <vehicle id="136" depart="136.00">
        <route edges="387347114#1 387347114#2 387347114#3 456458153#1 456458153#2 456458233#0 456458233#1 456458233#2 456458233#3 456458233#4 456458233#5 456458233#6 456458233#7 380240716#0 380240716#1 380240716#2 380240716#3 467203510#0"/>
    </vehicle>
    <vehicle id="139" depart="139.00">
        <route edges="71881371#7 71881371#8 71881371#9 71881371#10 456458233#6 456458233#7 380240716#0 380240716#1 380240716#2 380240716#3 380240716#4 380240716#5 380240716#6 380240716#7 380240716#8 380240716#9"/>
    </vehicle>
    <vehicle id="140" depart="140.00">
        <route edges="-467485537 442236421#1 442236421#2 442236421#3 456458233#3 456458233#4 -433012747#5 -433012747#4 -433012747#3 36326642#5 36326642#6 36326642#7 36326642#8 36326642#9 36326642#10 36326642#11 36326642#12 36326642#13 36326642#14 36326642#15 36326642#16 36326642#17 36326642#18 36326642#19 380240519#3 380240519#4 380240519#5 382662228#7 382662228#8 382662228#9 382662228#10 382662228#11"/>
    </vehicle>
    <vehicle id="141" depart="141.00">
        <route edges="456458152#0 456458152#1 456458152#2 456458152#3 456458152#4 456458152#5 210304097 210304104#0 210304104#1 210304104#2 210304104#3 194291013#0 194291013#1 194291013#2"/>
    </vehicle>
    <vehicle id="142" depart="142.00">
        <route edges="-382662228#1 5003754#2 380240716#0 380240716#1 380240716#2 380240716#3 380240716#4 380240716#5 380240716#6 380240716#7 380240716#8 157934984#3 157934984#4"/>
    </vehicle>
    <vehicle id="144" depart="144.00">
        <route edges="161072040 161072041 470482419 463299695#0 210304183#4 210304183#5 210304100#1 210304100#2 210304100#3 210304100#4 210304100#5 210304100#6 456458233#0 456458233#1 456458233#2 456458233#3 456458233#4 456458233#5 456458233#6 456458233#7 380240716#0 380240716#1 380240716#2 380240716#3 380240716#4 380240716#5 380240716#6 380240716#7 380240716#8 380240716#9"/>
    </vehicle>
    <vehicle id="146" depart="146.00">
        <route edges="433012747#1 -16284720#8 -16284720#7 -16284720#6 -16284720#5 -16284720#4 -16284720#3 4318808#2 4318808#3 4318811#4 4318811#5 4318811#0 5003754#0 5003754#1 5003754#2 380240716#0 380240716#1 380240716#2 380240716#3 380240716#4 380240716#5 380240716#6"/>
    </vehicle>
    <vehicle id="152" depart="152.00">
        <route edges="4318811#5 4318811#0 5003754#0 5003754#1 5003754#2 380240716#0 380240716#1 380240716#2 380240716#3 380240716#4 380240716#5 380240716#6 463301832#1 71881371#1 468419428"/>
    </vehicle>
    <vehicle id="154" depart="154.00">
        <route edges="387347114#0 36326642#19 380240519#3 380240519#4 380240519#5 380240519#6 456458152#0 456458152#1 456458152#2 456458152#3 456458152#4 456458152#5 210304097 210304104#0 210304104#1 210304104#2 210304104#3 194291013#0 -194291015"/>
    </vehicle>
    <vehicle id="156" depart="156.00">
        <route edges="71881372#0 71881372#1 71881372#2 4516015#6 4516015#7 4516015#8 157934984#0 157934984#1 157934984#2 157934984#3 157934984#4"/>
    </vehicle>
    <vehicle id="157" depart="157.00">
        <route edges="425049540#2 425049540#3 4318811#2 4318811#3 4318811#4 4318811#5 4318811#0 5003754#0 5003754#1 5003754#2 380240716#0 380240716#1 380240716#2 380240716#3 380240716#4 380240716#5 380240716#6 380240716#7 380240716#8 380240716#9"/>
    </vehicle>
    <vehicle id="159" depart="159.00">
        <route edges="-464583136 36326666#1 36326666#2 -433012747#3 433012747#3"/>
    </vehicle>
    <vehicle id="160" depart="160.00">
        <route edges="-382662228#1 5003754#2 380240716#0 380240716#1 380240716#2 380240716#3 380240716#4 380240716#5 380240716#6 380240716#7 380240716#8 -157934984#2 -157934984#1 -157934984#0 467452783#3 157934985#0 157934985#1 157934985#2 157934985#3 157934985#4 -463518874 463518874"/>
    </vehicle>
    <vehicle id="163" depart="163.00">
        <route edges="380240519#0 380240519#1 380240519#2 380240519#3 380240519#4 380240519#5 380240519#6 456458152#0 456458152#1 456458152#2 456458152#3"/>
    </vehicle>
    <vehicle id="168" depart="168.00">
        <route edges="4318808#0 4318808#1 4318808#2 4318808#3 4318811#4 4318811#5 4318811#0 5003754#0 5003754#1 5003754#2 380240716#0 380240716#1 380240716#2 380240716#3 380240716#4 380240716#5 380240716#6 380240716#7 380240716#8 -157934984#2 -157934984#1 -157934984#0 467452783#3 157934985#0 157934985#1 463518872#1 4516015#8"/>
    </vehicle>
    <vehicle id="169" depart="169.00">
        <route edges="380240519#0 380240519#1 380240519#2 380240519#3 380240519#4 380240519#5 -382662228#6 387347114#3 456458153#1 456458153#2 456458233#0 456458233#1 456458233#2 456458233#3 456458233#4 456458233#5 456458233#6 456458233#7 -5003754#2 -5003754#1 -461984370#1"/>
    </vehicle>
    <vehicle id="170" depart="170.00">
        <route edges="467452783#3 467452783#4 467452783#5 463303146 463303145 463299695#0 463299695#1 210304179#2 35103852"/>
    </vehicle>
    <vehicle id="172" depart="172.00">
        <route edges="-466719902 -157934984#1 -157934984#0 467452783#3 467452783#4 467452783#5 463303144#0 71881371#0 71881371#1 71881371#2 71881371#3 71881371#4 71881371#5 71881371#6 71881371#7 71881371#8 71881371#9 71881371#10 456458233#6 456458233#7 380240716#0 380240716#1 380240716#2 380240716#3 380240716#4"/>
    </vehicle>
    <vehicle id="175" depart="175.00">
        <route edges="-4318808#1 4318808#1 4318808#2 4318808#3 4318811#4 4318811#5 4318811#0 5003754#0 5003754#1 5003754#2 380240716#0 380240716#1 380240716#2 380240716#3 380240716#4 380240716#5 380240716#6 380240716#7 463303144#2"/>
    </vehicle>
    <vehicle id="176" depart="176.00">
        <route edges="4516015#0 157934980#0 157934980#1 157934985#7 210304183#2 210304183#3 210304183#4 210304183#5 210304100#1 210304100#2 210304100#3 210304100#4 210304100#5 210304100#6 456458233#0 456458233#1 456458233#2 456458233#3 456458233#4 -433012747#5 -433012747#4 -433012747#3 -433012747#2 -433012747#1 -433012747#0 433012748#0 433012748#1 -191541063"/>
    </vehicle>
    <vehicle id="180" depart="180.00">
        <route edges="425049540#0 425049540#1 425049540#2 425049540#3 4318811#2 4318811#3 4318811#4 4318811#5 4318811#0 5003754#0 5003754#1 5003754#2 380240716#0 380240716#1 380240716#2 380240716#3 380240716#4 380240716#5 380240716#6 463301832#1 463301832#2 463303145 463299695#0 210304183#4 210304183#5 210304100#1 210304100#2 210304100#3 442236421#0 442236421#1 442236421#2 467485539"/>
    </vehicle>
    <vehicle id="181" depart="181.00">
        <route edges="-467485533 181526861#2 210304100#3 210304100#4 210304100#5 210304100#6 456458234#0 382662228#4 382662228#5 382662228#6 382662228#7 382662228#8 382662228#9 382662228#10 382662228#11"/>
    </vehicle>
    <vehicle id="182" depart="182.00">
        <route edges="210304100#0 210304100#1 210304100#2 210304100#3 210304100#4 210304100#5 210304100#6 456458233#0 456458233#1 456458233#2 456458233#3 456458233#4 456458233#5 456458233#6"/>
    </vehicle>
    <vehicle id="183" depart="183.00">
        <route edges="467452783#0 467452783#1 467452783#2 467452783#3 467452783#4 467452783#5 463303146 463303145 463299695#0 210304183#4 210304183#5 210304100#1 210304100#2 210304100#3 210304100#4 210304100#5 210304100#6 456458234#0 382662228#4 382662228#5 382662228#6 382662228#7 -382662228#7"/>
    </vehicle>
    <vehicle id="184" depart="184.00">
        <route edges="-467488893 16284720#4 16284720#5 16284720#6 16284720#7 16284720#8 433012747#2 433012747#3 36326666#3 36326666#4 36326666#5"/>
    </vehicle>
    <vehicle id="185" depart="185.00">
        <route edges="380240716#8 -157934984#2 -157934984#1 -157934984#0 467452783#3 467452783#4 467452783#5 463303146 463303145 463299695#0 210304183#4 210304183#5 210304100#1 210304100#2 210304100#3 210304100#4 210304100#5 210304100#6 456458233#0 456458233#1 456458233#2 456458233#3 456458233#4 -433012747#5 382662228#2"/>
    </vehicle>
    <vehicle id="187" depart="187.00">
        <route edges="425049540#3 4318811#2 4318811#3 -4318808#3 -4318808#2 16284720#3 16284720#4 16284720#5 -433012750 433012749#0 -191540422"/>
    </vehicle>
    <vehicle id="194" depart="194.00">
        <route edges="71881371#9 71881371#10 456458233#6 456458233#7 380240716#0 380240716#1 380240716#2 380240716#3 380240716#4 380240716#5 380240716#6 380240716#7 380240716#8 -157934984#2 -157934984#1 -157934984#0 467452783#3 157934985#0 157934985#1 157934985#2 157934985#3 157934985#4 157934985#5 157934985#6 157934978#0 157934978#1 157934978#2 470482605#0 466719267"/>
    </vehicle>
    <vehicle id="195" depart="195.00">
        <route edges="-382662228#8 382662228#8 382662228#9 382662228#10"/>
    </vehicle>
    <vehicle id="197" depart="197.00">
        <route edges="-477974105 36326642#9 36326642#10 36326642#11 36326642#12 36326642#13 36326642#14 36326642#15 36326642#16 456458234#4"/>
    </vehicle>
    <vehicle id="198" depart="198.00">