<?xml version="1.0" encoding="UTF-8"?>

<!-- generated on Fri Nov 10 02:49:15 2017 by SUMO polyconvert Version 0.28.0
<?xml version="1.0" encoding="UTF-8"?>

<configuration xmlns:xsi="http://www.w3.org/2001/XMLSchema-instance" xsi:noNamespaceSchemaLocation="http://sumo.dlr.de/xsd/polyconvertConfiguration.xsd">

    <input>
        <net-file value="amirkabir.net.xml"/>
        <osm-files value="map.osm"/>
        <type-file value="typemap.xml"/>
    </input>

    <output>
        <output-file value="amirkabir.poly.xml"/>
    </output>

    <processing>
        <poi-layer-offset value="5"/>
    </processing>

</configuration>
-->

<additional xmlns:xsi="http://www.w3.org/2001/XMLSchema-instance" xsi:noNamespaceSchemaLocation="http://sumo.dlr.de/xsd/additional_file.xsd">
    <location netOffset="-528230.99,-3948698.08" convBoundary="0.00,-2557.83,18864.32,13374.29" origBoundary="51.312053,35.658433,51.521218,35.801773" projParameter="+proj=utm +zone=39 +ellps=WGS84 +datum=WGS84 +units=m +no_defs"/>

    <poly id="157934978" type="unknown" color="51,128,255" fill="0" layer="-1.00" shape="9247.68,2323.06 9224.15,2320.64 9181.56,2316.23 9115.90,2309.44"/>
    <poly id="157934980" type="unknown" color="51,128,255" fill="0" layer="-1.00" shape="9387.16,2332.46 9319.25,2327.88 9247.68,2323.06"/>
    <poly id="157934982" type="unknown" color="51,128,255" fill="0" layer="-1.00" shape="9485.71,2440.60 9509.10,2226.81"/>
    <poly id="157934984" type="unknown" color="51,128,255" fill="0" layer="-1.00" shape="9361.06,2625.31 9355.48,2701.66 9353.66,2719.86 9345.59,2800.85 9340.88,2852.48 9337.11,2893.87 9335.05,2916.57 9331.12,2959.73 9330.73,2964.01 9326.74,3007.81 9325.50,3021.41 9323.00,3048.94 9322.23,3057.37 9310.31,3188.13 9305.77,3238.10 9305.41,3242.14 9302.89,3269.81 9298.04,3323.06 9294.05,3365.71 9291.84,3389.26 9290.59,3402.83 9284.19,3472.46 9283.04,3484.88 9280.97,3507.47 9278.79,3531.21 9276.61,3554.95 9274.02,3587.06 9272.77,3602.51 9269.42,3644.15 9267.62,3666.36 9265.45,3693.30 9262.15,3734.15"/>
    <poly id="157934985" type="unknown" color="51,128,255" fill="0" layer="-1.00" shape="9223.97,2612.98 9228.66,2555.72 9232.33,2510.83 9237.49,2447.72 9239.64,2421.35 9240.17,2414.96 9243.43,2375.03 9247.68,2323.06 9259.02,2220.44"/>
    <poly id="157934986" type="unknown" color="51,128,255" fill="0" layer="-1.00" shape="9382.18,2388.33 9243.43,2375.03"/>
    <poly id="15885479" type="amenity" color="237,199,199" fill="1" layer="2.00" shape="9057.56,2713.52 9069.41,2572.42 9081.28,2431.08 9033.71,2433.77 9022.59,2539.06 8920.79,2527.35 8923.16,2493.19 8897.01,2490.55 8864.64,2487.29 8830.15,2483.82 8813.04,2481.97 8673.12,2466.83 8489.98,2447.02 8490.72,2481.25 8491.51,2517.50 8495.14,2518.75 9057.56,2713.52"/>
    <poly id="161072040" type="unknown" color="51,128,255" fill="0" layer="-1.00" shape="9033.25,3089.56 9087.57,2521.95"/>
    <poly id="161072041" type="unknown" color="51,128,255" fill="0" layer="-1.00" shape="9087.57,2521.95 9107.50,2313.86"/>
    <poly id="161072166" type="unknown" color="51,128,255" fill="0" layer="-1.00" shape="8638.04,2927.45 8630.99,2879.41 8616.14,2778.22"/>
    <poly id="16284720" type="unknown" color="51,128,255" fill="0" layer="-1.00" shape="8037.25,2912.44 8059.69,2852.02 8082.74,2789.96 8110.98,2713.91 8130.62,2660.98 8144.94,2622.43 8154.31,2597.23 8169.15,2557.24 8171.83,2550.03 8195.89,2485.23"/>
    <poly id="165214618" type="unknown" color="51,128,255" fill="0" layer="-1.00" shape="9324.27,2222.25 9320.98,2291.39 9319.25,2327.88"/>
    <poly id="181526861" type="unknown" color="51,128,255" fill="0" layer="-1.00" shape="8729.63,2388.06 8729.90,2359.06 8730.43,2303.41 8731.39,2201.84"/>
    <poly id="181526863" type="landuse" color="194,194,130" fill="1" layer="-4.00" shape="9136.51,2226.48 9184.33,2229.86 9182.36,2237.67 9182.47,2244.19 9180.91,2253.46 9179.00,2276.91 9155.71,2274.88 9151.70,2305.79 9126.49,2300.85 9136.51,2226.48"/>
    <poly id="181526865" type="amenity" color="237,199,199" fill="1" layer="2.00" shape="8621.56,2350.90 8723.42,2353.66 8724.10,2247.27 8724.08,2240.46 8675.88,2238.12 8632.62,2236.02 8621.56,2350.90"/>
    <poly id="181526866" type="landuse" color="194,194,130" fill="1" layer="-4.00" shape="8740.54,2216.13 9101.57,2223.44 9099.51,2254.35 8958.78,2251.83 8957.79,2243.52 8886.99,2242.84 8885.00,2254.42 8805.40,2255.05 8805.29,2282.11 8780.06,2282.97 8777.10,2348.74 8739.72,2349.08 8740.54,2216.13"/>
    <poly id="181526867" type="commercial" color="209,209,204" fill="1" layer="-11.00" shape="9258.46,2281.88 9261.65,2229.34 9317.94,2231.50 9315.54,2283.72 9258.46,2281.88"/>
    <poly id="183425238" type="unknown" color="51,128,255" fill="0" layer="-1.00" shape="8881.89,2079.36 8887.44,2116.40 8890.25,2135.15 8898.62,2190.95"/>
    <poly id="183425241" type="landuse" color="194,194,130" fill="1" layer="-4.00" shape="8331.17,2166.04 8382.80,2168.34 8382.90,2158.62 8398.74,2158.00 8375.70,1961.37 8348.27,1726.57 8327.33,1565.18 8147.23,1577.74 8153.84,1621.26 8176.17,1619.42 8182.85,1647.47 8271.98,1630.58 8283.45,1731.96 8272.76,1735.77 8298.20,1924.33 8318.86,2091.59 8331.17,2166.04"/>
    <poly id="191527968" type="unknown" color="51,128,255" fill="0" layer="-1.00" shape="8291.58,2874.71 8229.49,2868.27"/>
    <poly id="191536516" type="unknown" color="51,128,255" fill="0" layer="-1.00" shape="8236.81,2846.59 8082.74,2789.96"/>
    <poly id="191536524" type="unknown" color="51,128,255" fill="0" layer="-1.00" shape="8059.69,2852.02 8196.75,2899.52 8216.23,2906.27"/>
    <poly id="191539566" type="unknown" color="51,128,255" fill="0" layer="-1.00" shape="8205.88,2643.42 8144.94,2622.43"/>
    <poly id="191539567" type="unknown" color="51,128,255" fill="0" layer="-1.00" shape="8213.94,2573.89 8169.15,2557.24"/>
    <poly id="191539773" type="unknown" color="51,128,255" fill="0" layer="-1.00" shape="8226.54,2575.87 8252.11,2573.77"/>
    <poly id="191539788" type="unknown" color="51,128,255" fill="0" layer="-1.00" shape="8525.57,2878.12 8630.99,2879.41"/>
    <poly id="191539800" type="unknown" color="51,128,255" fill="0" layer="-1.00" shape="8011.23,2584.41 8086.13,2610.76"/>
    <poly id="191540158" type="unknown" color="51,128,255" fill="0" layer="-1.00" shape="8086.13,2610.76 8073.40,2645.30 8055.23,2695.12"/>
    <poly id="191540422" type="unknown" color="51,128,255" fill="0" layer="-1.00" shape="8123.33,2536.80 8038.50,2505.12"/>
    <poly id="191541061" type="unknown" color="51,128,255" fill="0" layer="-1.00" shape="8137.22,2341.37 8223.05,2329.60"/>
    <poly id="191541062" type="unknown" color="51,128,255" fill="0" layer="-1.00" shape="8089.05,2318.46 8052.72,2304.37 7969.96,2272.10"/>
    <poly id="191541063" type="unknown" color="51,128,255" fill="0" layer="-1.00" shape="8232.99,2415.69 8205.33,2418.96 8076.05,2371.58"/>
    <poly id="191541077" type="unknown" color="51,128,255" fill="0" layer="-1.00" shape="8072.02,2250.68 8066.29,2266.62 8052.72,2304.37"/>
    <poly id="191541078" type="unknown" color="51,128,255" fill="0" layer="-1.00" shape="8106.95,2265.87 8112.17,2314.69"/>
    <poly id="191541105" type="unknown" color="51,128,255" fill="0" layer="-1.00" shape="8018.65,2378.58 8069.65,2397.77"/>
    <poly id="191541383" type="unknown" color="51,128,255" fill="0" layer="-1.00" shape="7984.41,2449.27 8049.60,2470.22"/>
    <poly id="191542140" type="unknown" color="51,128,255" fill="0" layer="-1.00" shape="8290.70,2436.01 8236.05,2442.30"/>
    <poly id="191542141" type="unknown" color="51,128,255" fill="0" layer="-1.00" shape="8225.09,2347.26 8287.47,2337.43"/>
    <poly id="191542142" type="unknown" color="51,128,255" fill="0" layer="-1.00" shape="8332.12,2336.65 8344.82,2334.57"/>
    <poly id="191542143" type="unknown" color="51,128,255" fill="0" layer="-1.00" shape="8257.47,2254.22 8214.92,2259.95"/>
    <poly id="191542145" type="unknown" color="51,128,255" fill="0" layer="-1.00" shape="8264.08,2302.07 8220.61,2308.40"/>
    <poly id="191542146" type="unknown" color="51,128,255" fill="0" layer="-1.00" shape="8296.74,2264.52 8333.89,2258.83"/>
    <poly id="191542381" type="unknown" color="51,128,255" fill="0" layer="-1.00" shape="8417.81,2326.39 8344.82,2334.57"/>
    <poly id="191542382" type="unknown" color="51,128,255" fill="0" layer="-1.00" shape="8449.21,2324.06 8417.81,2326.39"/>
    <poly id="194290056" type="unknown" color="51,128,255" fill="0" layer="-1.00" shape="9226.27,2118.61 9346.64,2113.66"/>
    <poly id="194291013" type="unknown" color="51,128,255" fill="0" layer="-1.00" shape="9488.02,2214.47 9490.55,2163.37 9492.21,2121.84 9495.46,2040.72 9497.54,1990.22"/>
    <poly id="194291014" type="unknown" color="51,128,255" fill="0" layer="-1.00" shape="9393.24,2211.70 9393.28,2152.32 9393.63,2111.73 9394.13,2052.78 9394.45,2005.29"/>
    <poly id="194291015" type="unknown" color="51,128,255" fill="0" layer="-1.00" shape="9393.28,2152.32 9403.96,2151.39 9490.55,2163.37"/>
    <poly id="194291018" type="unknown" color="51,128,255" fill="0" layer="-1.00" shape="9492.21,2121.84 9478.63,2120.64 9393.63,2111.73"/>
    <poly id="194291023" type="unknown" color="51,128,255" fill="0" layer="-1.00" shape="9558.22,2130.76 9492.21,2121.84"/>
    <poly id="208005664" type="building" color="255,230,230" fill="1" layer="2.00" shape="8679.17,2495.33 8721.85,2500.58 8730.81,2504.48 8731.28,2507.38 8736.14,2507.88 8738.18,2481.56 8680.94,2475.77 8679.17,2495.33"/>
    <poly id="208005786" type="building" color="255,230,230" fill="1" layer="2.00" shape="8647.70,2534.57 8633.17,2527.27 8632.25,2515.67 8511.09,2475.55 8505.68,2492.92 8490.66,2487.06 8495.14,2518.75 8641.75,2566.92 8650.52,2556.81 8651.04,2549.57 8647.70,2534.57"/>
    <poly id="210304097" type="unknown" color="51,128,255" fill="0" layer="-1.00" shape="9005.60,2202.25 9190.62,2208.42"/>
    <poly id="210304098" type="unknown" color="51,128,255" fill="0" layer="-1.00" shape="9190.00,2213.45 9005.28,2207.16"/>
    <poly id="210304100" type="unknown" color="51,128,255" fill="0" layer="-1.00" shape="9005.28,2207.16 8845.25,2204.71 8827.72,2204.27 8731.39,2201.84 8549.42,2197.78 8472.50,2196.02 8451.06,2195.53 8436.08,2195.20 8431.47,2195.09"/>
    <poly id="210304104" type="unknown" color="51,128,255" fill="0" layer="-1.00" shape="9190.62,2208.42 9347.60,2210.38 9393.24,2211.70 9418.81,2212.44 9488.02,2214.47 9540.43,2216.00 9607.56,2217.78 9619.55,2218.31 9641.76,2210.06"/>
    <poly id="210304179" type="unknown" color="51,128,255" fill="0" layer="-1.00" shape="8844.79,2196.45 8898.62,2190.95 9115.97,2198.03 9324.35,2204.83 9347.60,2210.38"/>
    <poly id="210304183" type="unknown" color="51,128,255" fill="0" layer="-1.00" shape="9346.39,2219.43 9324.27,2222.25 9259.02,2220.44 9191.42,2218.58 9115.74,2216.50 8989.01,2213.14 8900.56,2210.34 8845.25,2204.71"/>
    <poly id="225560361" type="building" color="255,230,230" fill="1" layer="2.00" shape="8270.64,2121.88 8275.54,2123.78 8273.66,2166.28 8263.91,2166.05 8263.98,2149.34 8264.08,2124.03 8270.64,2121.88"/>
    <poly id="271964725" type="unknown" color="51,128,255" fill="0" layer="-1.00" shape="9355.48,2701.66 9513.53,2713.65 9633.03,2724.37"/>
    <poly id="272255402" type="building" color="255,230,230" fill="1" layer="2.00" shape="9509.47,2716.06 9455.38,2713.29 9454.26,2749.76 9454.07,2763.65 9467.72,2764.75 9477.96,2765.57 9478.37,2757.84 9480.80,2755.80 9481.07,2750.60 9505.44,2753.12 9507.52,2747.33 9508.12,2721.73 9509.47,2716.06"/>
    <poly id="302696298" type="unknown" color="51,128,255" fill="0" layer="-1.00" shape="8505.06,2725.30 8612.99,2726.75 8614.01,2711.56 8617.64,2657.67 8682.67,2659.88"/>
    <poly id="308260350" type="unknown" color="51,128,255" fill="0" layer="-1.00" shape="9370.06,2524.27 9439.08,2528.34 9483.47,2530.96 9650.06,2540.11"/>
    <poly id="308260351" type="unknown" color="51,128,255" fill="0" layer="-1.00" shape="9483.47,2530.96 9473.89,2634.91"/>
    <poly id="335888508" type="unknown" color="51,128,255" fill="0" layer="-1.00" shape="9039.74,2150.95 9113.40,2153.14"/>
    <poly id="35103852" type="unknown" color="51,128,255" fill="0" layer="-1.00" shape="9347.60,2210.38 9346.64,2113.66"/>
    <poly id="36326642" type="unknown" color="51,128,255" fill="0" layer="-1.00" shape="8276.10,2744.05 8266.75,2688.66 8257.96,2619.69 8252.11,2573.77 8249.26,2551.40 8242.66,2499.56 8236.05,2442.30 8232.99,2415.69 8230.60,2395.07 8229.33,2384.02 8225.09,2347.26 8223.05,2329.60 8220.61,2308.40 8219.31,2297.19 8217.56,2282.33 8216.04,2269.53 8214.92,2259.95 8208.98,2189.25 8208.28,2183.64 8208.05,2179.79 8207.58,2175.72 8195.52,2091.35 8193.31,2071.32 8187.91,2024.60 8182.90,1981.22 8175.26,1912.42 8170.85,1872.73 8164.87,1819.78 8162.51,1798.85 8160.96,1785.17 8155.99,1741.14 8149.74,1685.95 8149.03,1679.59 8144.75,1639.86 8136.92,1572.40 8135.95,1563.85 8133.22,1541.67 8130.97,1523.40 8128.29,1501.62 8123.79,1464.99 8121.81,1448.79 8117.52,1413.97 8115.58,1398.17 8112.58,1373.71 8105.27,1314.29"/>
    <poly id="36326664" type="unknown" color="51,128,255" fill="0" layer="-1.00" shape="8219.31,2297.19 8147.67,2308.89 8112.17,2314.69 8089.05,2318.46"/>
    <poly id="36326666" type="unknown" color="51,128,255" fill="0" layer="-1.00" shape="8407.59,2769.64 8389.58,2644.67 8380.80,2583.92 8366.31,2483.48 8355.46,2408.36 8349.22,2365.05 8344.82,2334.57 8333.89,2258.83 8324.18,2191.59"/>
    <poly id="380240519" type="unknown" color="51,128,255" fill="0" layer="-1.00" shape="7178.43,2119.68 7219.11,2131.73 7250.48,2141.13 7259.44,2143.68 7296.56,2146.37 7436.43,2151.07 7608.96,2156.45 7803.96,2162.76 8002.44,2168.33 8074.19,2170.85 8102.83,2171.90 8207.58,2175.72 8323.37,2179.55 8415.81,2183.20 8419.94,2183.37 8429.40,2183.74"/>
    <poly id="380240716" type="unknown" color="51,128,255" fill="0" layer="-1.00" shape="8510.91,2777.02 8616.14,2778.22 8679.05,2780.17 8744.30,2782.19 8791.83,2783.67 8829.19,2784.82 8872.84,2786.18 9053.87,2791.79 9068.46,2792.24 9345.59,2800.85 9504.72,2805.80 9626.78,2809.59 9662.39,2810.71 9739.91,2813.12 9855.74,2816.71 9941.37,2819.38 10157.87,2826.13 10279.41,2829.92 10335.11,2831.79 10407.06,2834.20 10448.63,2835.60 10462.20,2836.06 10620.42,2841.38 10734.39,2844.45 10748.10,2845.20 10848.13,2850.68 10856.36,2850.71 10919.99,2849.98 10947.76,2851.08 10966.09,2849.54 10979.05,2843.44 10994.66,2829.03 11007.95,2815.29"/>
    <poly id="382662228" type="unknown" color="51,128,255" fill="0" layer="-1.00" shape="8578.11,3296.32 8575.26,3276.47 8539.82,3029.18 8504.02,2776.71 8497.98,2734.21 8460.95,2469.38 8429.36,2243.51 8428.04,2235.04 8421.85,2194.90 8421.45,2192.40 8420.40,2185.94 8419.94,2183.37 8414.24,2145.60 8398.16,2023.81 8374.33,1846.58 8358.25,1726.96 8356.21,1713.03 8339.80,1600.75 8334.24,1560.85 8332.90,1551.67 8327.82,1514.72 8324.53,1491.47 8315.58,1422.93 8310.05,1384.41 8297.72,1298.55 8279.20,1169.44 8267.68,1089.25 8251.97,974.20 8202.67,613.50 8196.29,566.57 8189.35,518.17 8176.57,429.08 8171.30,392.31 8162.41,330.45 8151.14,251.80 8139.29,169.19 8129.33,99.74 8119.13,28.62 8114.72,0.00"/>
    <poly id="38680838" type="unknown" color="51,128,255" fill="0" layer="-1.00" shape="8639.28,2104.92 8583.40,2108.52 8578.33,2108.67 8555.23,2109.31 8545.15,2109.61 8487.89,2111.22"/>
    <poly id="38682897" type="unknown" color="51,128,255" fill="0" layer="-1.00" shape="9643.27,2238.56 9618.63,2230.30 9610.75,2230.27 9608.02,2230.15 9557.38,2227.85 9509.10,2226.81 9418.75,2222.31 9396.94,2221.45 9346.39,2219.43 9190.00,2213.45"/>
    <poly id="387347113" type="unknown" color="51,128,255" fill="0" layer="-1.00" shape="9608.02,2230.15 9605.22,2225.74 9425.33,2218.94 9418.75,2222.31"/>
    <poly id="387347114" type="unknown" color="51,128,255" fill="0" layer="-1.00" shape="7178.43,2119.68 7240.98,2148.34 7248.17,2149.55 7252.62,2150.32 7279.21,2152.31 7363.65,2154.46 7435.25,2157.26 7803.74,2167.65 7999.74,2173.53 8003.68,2173.65 8208.05,2179.79 8375.09,2183.89 8415.61,2185.72 8420.40,2185.94 8429.95,2186.28 8478.85,2188.16 8800.58,2197.71 8827.77,2195.93"/>
    <poly id="387347115" type="unknown" color="51,128,255" fill="0" layer="-1.00" shape="8827.72,2204.27 8797.89,2201.32 8436.03,2192.93 8431.00,2192.81 8421.45,2192.40 8388.57,2191.53 8208.28,2183.64 8002.75,2177.57 7995.96,2177.37 7434.87,2161.00 7360.60,2158.64 7320.07,2161.52 7281.49,2159.33 7254.04,2159.51 7247.97,2159.61 7242.63,2159.70 7173.68,2184.58"/>
    <poly id="387347116" type="unknown" color="51,128,255" fill="0" layer="-1.00" shape="9418.81,2212.44 9425.82,2216.04 9605.12,2221.39 9607.56,2217.78"/>
    <poly id="390584475" type="tourism" color="207,245,201" fill="1" layer="-10.00" shape="8434.70,2169.90 8639.32,2176.31 8623.14,2030.59 8416.89,2031.34 8434.70,2169.90"/>
    <poly id="401035184" type="unknown" color="51,128,255" fill="0" layer="-1.00" shape="8354.19,2899.55 8352.47,2874.25"/>
    <poly id="402324831" type="unknown" color="51,128,255" fill="0" layer="-1.00" shape="9212.78,2850.56 9340.88,2852.48"/>
    <poly id="425049540" type="unknown" color="51,128,255" fill="0" layer="-1.00" shape="8430.39,3899.97 8426.42,3870.69 8421.00,3826.96 8417.51,3804.82 8416.10,3794.40 8413.29,3773.61 8411.71,3761.60 8407.65,3732.02 8403.60,3702.05 8401.98,3690.13 8399.11,3668.90 8392.09,3617.05 8390.57,3605.87 8381.20,3536.62 8371.52,3465.11 8370.30,3456.26 8356.66,3378.75 8355.21,3369.61 8340.78,3278.56 8339.54,3270.69 8338.84,3263.46 8337.40,3248.28 8336.35,3237.33 8330.16,3184.21 8329.20,3175.94 8326.13,3149.62 8325.56,3144.75 8319.82,3095.51 8315.30,3056.73 8310.62,3016.58 8309.56,3007.45 8298.02,2922.27 8291.58,2874.71 8279.87,2791.89"/>
    <poly id="4297761" type="unknown" color="51,128,255" fill="0" layer="-1.00" shape="7749.60,2328.86 7783.32,2340.86 7819.85,2353.88 7917.87,2388.71 7927.45,2392.07 8059.72,2438.34"/>
    <poly id="4318808" type="unknown" color="51,128,255" fill="0" layer="-1.00" shape="7667.60,2558.06 7837.02,2618.44 7846.00,2621.91 7978.90,2669.54 8055.23,2695.12 8110.98,2713.91 8204.51,2746.97 8255.47,2762.95"/>
    <poly id="4318811" type="unknown" color="51,128,255" fill="1" layer="-1.00" shape="8301.37,2758.69 8303.16,2766.37 8302.25,2774.62 8299.13,2781.25 8293.88,2786.86 8287.22,2790.51 8279.87,2791.89 8272.53,2791.01 8265.88,2787.99 8260.49,2783.19 8256.77,2777.03 8255.05,2770.05 8255.47,2762.95 8258.08,2756.07 8262.64,2750.31 8268.82,2746.14 8276.10,2744.05 8283.79,2744.33 8291.09,2747.06 8297.18,2752.00 8301.37,2758.69"/>
    <poly id="433012747" type="unknown" color="51,128,255" fill="0" layer="-1.00" shape="8059.72,2438.34 8123.04,2460.15 8195.89,2485.23 8242.66,2499.56 8366.31,2483.48 8441.83,2472.23 8460.95,2469.38 8468.03,2468.36"/>
    <poly id="433012748" type="unknown" color="51,128,255" fill="0" layer="-1.00" shape="8059.72,2438.34 8069.65,2397.77 8076.05,2371.58 8081.25,2350.35 8082.44,2345.51 8089.05,2318.46"/>
    <poly id="433012749" type="unknown" color="51,128,255" fill="0" layer="-1.00" shape="8023.93,2550.97 8034.66,2517.19 8038.50,2505.12 8049.60,2470.22 8059.72,2438.34"/>
    <poly id="433012750" type="unknown" color="51,128,255" fill="0" layer="-1.00" shape="8023.93,2550.97 8154.31,2597.23"/>
    <poly id="4392714" type="unknown" color="51,128,255" fill="0" layer="-1.00" shape="8569.48,1538.52 8570.51,1546.78 8578.26,1609.23 8585.63,1668.65 8592.89,1727.14 8598.61,1773.18 8602.03,1800.73 8604.74,1822.51 8608.42,1852.12 8611.40,1876.16 8616.51,1917.38 8623.80,1976.04 8629.66,2023.30 8630.27,2028.17 8632.83,2049.95 8635.47,2072.47 8639.28,2104.92 8651.23,2190.52"/>
    <poly id="439649444" type="building" color="255,230,230" fill="1" layer="2.00" shape="9494.16,2853.88 9473.80,2852.58 9475.93,2819.57 9496.28,2820.87 9494.16,2853.88"/>
    <poly id="439649444#1" type="commercial" color="209,209,204" fill="1" layer="-11.00" shape="9494.16,2853.88 9473.80,2852.58 9475.93,2819.57 9496.28,2820.87 9494.16,2853.88"/>
    <poly id="442236421" type="unknown" color="51,128,255" fill="0" layer="-1.00" shape="8549.42,2197.78 8544.72,2256.05 8539.79,2292.19 8537.98,2324.58 8537.03,2351.64 8535.54,2370.09 8494.29,2368.95 8453.66,2373.30"/>
    <poly id="444094004" type="building" color="255,230,230" fill="1" layer="2.00" shape="8504.34,2919.62 8486.87,2803.11 8468.00,2790.47 8416.58,2786.88 8436.86,2929.00 8504.34,2919.62"/>
    <poly id="444094004#1" type="shop" color="237,199,255" fill="1" layer="2.00" shape="8504.34,2919.62 8486.87,2803.11 8468.00,2790.47 8416.58,2786.88 8436.86,2929.00 8504.34,2919.62"/>
    <poly id="444100236" type="building" color="255,230,230" fill="1" layer="2.00" shape="9039.17,2808.19 8945.63,2804.02 8939.13,2948.48 9032.66,2952.65 9039.17,2808.19"/>
    <poly id="444729919" type="building" color="255,230,230" fill="1" layer="2.00" shape="8821.72,2529.04 8857.13,2533.06 8856.31,2497.29 8824.29,2496.68 8821.72,2529.04"/>
    <poly id="444729920" type="building" color="255,230,230" fill="1" layer="2.00" shape="8986.87,2564.70 9012.35,2566.36 9013.79,2544.39 8988.31,2542.73 8986.87,2564.70"/>
    <poly id="444729921" type="building" color="255,230,230" fill="1" layer="2.00" shape="8798.43,2603.22 8828.03,2603.34 8827.16,2580.63 8797.56,2579.55 8798.43,2603.22"/>
    <poly id="444729922" type="building" color="255,230,230" fill="1" layer="2.00" shape="8866.32,2541.30 8906.10,2544.37 8907.72,2504.28 8896.57,2503.26 8897.01,2490.55 8864.64,2487.29 8866.32,2541.30"/>
    <poly id="444729923" type="amenity" color="237,199,199" fill="1" layer="2.00" shape="8493.32,2378.39 8489.98,2447.02 8673.12,2466.83 8679.12,2394.13 8720.86,2393.81 8722.43,2366.28 8631.71,2358.66 8628.18,2391.99 8591.32,2387.00 8597.24,2361.90 8546.77,2360.24 8544.76,2378.60 8493.32,2378.39"/>
    <poly id="444775992" type="building" color="255,230,230" fill="1" layer="2.00" shape="9297.34,2843.02 9335.02,2844.43 9336.00,2818.24 9298.32,2816.83 9297.34,2843.02"/>
    <poly id="444894043" type="building" color="255,230,230" fill="1" layer="2.00" shape="8677.65,2577.43 8680.48,2554.13 8764.80,2564.28 8761.97,2587.58 8677.65,2577.43"/>
    <poly id="445156158" type="tourism" color="207,245,201" fill="1" layer="2.00" shape="9352.85,2857.21 9398.18,2860.57 9401.25,2819.48 9359.79,2817.83 9355.60,2820.34 9352.85,2857.21"/>
    <poly id="445156161" type="building" color="255,230,230" fill="1" layer="2.00" shape="8945.85,2671.98 8986.02,2675.50 8989.86,2632.00 8949.68,2628.48 8945.85,2671.98"/>
    <poly id="445156161#1" type="leisure" color="207,245,201" fill="1" layer="0.00" shape="8945.85,2671.98 8986.02,2675.50 8989.86,2632.00 8949.68,2628.48 8945.85,2671.98"/>
    <poly id="445156162" type="amenity" color="237,199,199" fill="1" layer="2.00" shape="9045.31,2702.63 9033.36,2701.10 9033.94,2696.54 9009.33,2693.41 9015.10,2648.44 9027.18,2649.98 9026.45,2655.67 9051.73,2658.89 9050.86,2665.79 9055.96,2666.44 9051.98,2697.39 9046.08,2696.64 9045.31,2702.63"/>
    <poly id="447190290" type="building" color="255,230,230" fill="1" layer="2.00" shape="8420.09,2232.18 8418.44,2232.26 8416.79,2232.33 8416.83,2223.98 8419.46,2223.99 8420.09,2232.18"/>
    <poly id="447190292" type="building" color="255,230,230" fill="1" layer="2.00" shape="8388.93,2203.38 8388.93,2202.25 8388.94,2201.08 8400.29,2201.13 8399.46,2203.59 8388.93,2203.38"/>
    <poly id="447190858" type="building" color="255,230,230" fill="0" layer="2.00" shape="8397.19,2189.62 8396.99,2190.48 8386.55,2190.83 8386.53,2188.88 8386.51,2187.00"/>
    <poly id="447191077" type="building" color="255,230,230" fill="1" layer="2.00" shape="8398.98,2169.42 8391.48,2164.44 8393.39,2162.55 8395.38,2160.58 8401.90,2166.90 8398.98,2169.42"/>
    <poly id="447193678" type="building" color="255,230,230" fill="1" layer="2.00" shape="8457.75,2171.58 8453.91,2168.09 8451.73,2166.35 8455.74,2162.24 8459.35,2158.53 8465.37,2162.29 8457.75,2171.58"/>
    <poly id="447194191" type="building" color="255,230,230" fill="1" layer="2.00" shape="8417.93,2157.15 8422.50,2156.36 8420.92,2146.30 8418.49,2146.54 8416.64,2146.65 8417.93,2157.15"/>
    <poly id="447195133" type="building" color="255,230,230" fill="1" layer="2.00" shape="8453.20,2191.21 8453.43,2187.87 8463.14,2188.40 8463.24,2190.68 8463.35,2193.03 8453.20,2191.21"/>
    <poly id="447197029" type="building" color="255,230,230" fill="1" layer="2.00" shape="8450.46,2206.86 8450.65,2205.48 8450.87,2203.88 8456.67,2204.30 8456.46,2207.29 8450.46,2206.86"/>
    <poly id="447197031" type="unknown" color="51,128,255" fill="1" layer="-1.00" shape="8463.52,2167.66 8459.24,2164.13 8458.46,2163.48 8454.25,2160.02 8439.85,2149.71 8421.70,2151.24 8419.36,2151.63 8417.29,2151.97 8398.33,2163.45 8396.73,2165.17 8395.15,2166.87 8392.02,2187.43 8391.91,2188.61 8391.85,2189.36 8391.54,2192.73 8394.11,2201.76 8394.25,2202.36 8394.62,2203.89 8414.25,2218.40 8418.22,2226.77 8453.17,2207.05 8453.42,2205.64 8458.01,2190.60 8463.52,2167.66"/>
    <poly id="447201206" type="unknown" color="51,128,255" fill="0" layer="-1.00" shape="8459.24,2164.13 8435.89,2190.01 8391.91,2188.61"/>
    <poly id="447201209" type="unknown" color="51,128,255" fill="0" layer="-1.00" shape="8458.01,2190.60 8463.24,2190.68"/>
    <poly id="447201214" type="unknown" color="51,128,255" fill="0" layer="-1.00" shape="8418.22,2226.77 8418.44,2232.26"/>
    <poly id="447201217" type="unknown" color="51,128,255" fill="0" layer="-1.00" shape="8394.25,2202.36 8388.93,2202.25"/>
    <poly id="447201221" type="unknown" color="51,128,255" fill="0" layer="-1.00" shape="8396.73,2165.17 8393.39,2162.55"/>
    <poly id="447201224" type="unknown" color="51,128,255" fill="0" layer="-1.00" shape="8419.36,2151.63 8418.49,2146.54"/>
    <poly id="447201227" type="unknown" color="51,128,255" fill="0" layer="-1.00" shape="8453.91,2168.09 8458.46,2163.48"/>
    <poly id="447207256" type="building" color="255,230,230" fill="0" layer="2.00" shape="8386.51,2187.00 8397.65,2187.24 8397.19,2189.62"/>
    <poly id="447207257" type="unknown" color="51,128,255" fill="0" layer="-1.00" shape="8386.53,2188.88 8391.91,2188.61"/>
    <poly id="447211886" type="unknown" color="51,128,255" fill="0" layer="-1.00" shape="8418.44,2232.26 8418.49,2235.22 8428.04,2235.04 8436.94,2234.82"/>
    <poly id="447211888" type="unknown" color="51,128,255" fill="0" layer="-1.00" shape="8388.93,2202.25 8388.21,2193.80"/>
    <poly id="447215482" type="unknown" color="51,128,255" fill="0" layer="-1.00" shape="8545.15,2109.61 8544.64,2082.30 8557.58,2082.57 8578.82,2083.04 8578.33,2108.67"/>
    <poly id="447215483" type="unknown" color="51,128,255" fill="0" layer="-1.00" shape="8553.93,2187.55 8555.23,2109.31"/>
    <poly id="447215484" type="water" color="181,209,209" fill="1" layer="-10.00" shape="8475.87,2116.59 8476.46,2117.76 8476.63,2119.06 8476.38,2120.36 8475.73,2121.49 8474.74,2122.36 8473.52,2122.86 8472.21,2122.95 8470.94,2122.61 8469.83,2121.86 8469.02,2120.79 8468.61,2119.52 8468.64,2118.18 8469.12,2116.93 8469.97,2115.91 8471.12,2115.22 8472.44,2114.94 8473.75,2115.10 8474.93,2115.67 8475.87,2116.59"/>
    <poly id="447215485" type="unknown" color="51,128,255" fill="0" layer="-1.00" shape="8453.91,2168.09 8452.46,2169.25 8448.85,2169.23 8448.87,2157.70 8448.95,2111.14 8474.83,2109.26 8487.89,2111.22"/>
    <poly id="447215486" type="unknown" color="51,128,255" fill="0" layer="-1.00" shape="8448.87,2157.70 8425.69,2157.67"/>
    <poly id="447215747" type="unknown" color="51,128,255" fill="0" layer="-1.00" shape="8474.83,2109.26 8462.70,2096.57"/>
    <poly id="4516015" type="unknown" color="51,128,255" fill="0" layer="-1.00" shape="9396.94,2221.45 9387.16,2332.46 9386.17,2343.59 9382.18,2388.33 9381.56,2395.29 9380.17,2410.86 9378.31,2431.73 9373.32,2487.80 9370.06,2524.27 9361.06,2625.31"/>
    <poly id="453015606" type="amenity" color="237,199,199" fill="1" layer="2.00" shape="8592.90,2766.37 8593.68,2731.83 8625.46,2732.54 8624.69,2767.08 8592.90,2766.37"/>
    <poly id="454001586" type="unknown" color="51,128,255" fill="0" layer="-1.00" shape="9069.41,2572.42 8744.84,2533.63 8740.57,2519.57 8712.41,2510.82 8678.24,2511.76 8664.67,2516.56 8520.63,2471.15"/>
    <poly id="454001587" type="unknown" color="51,128,255" fill="0" layer="-1.00" shape="8744.84,2533.63 8730.68,2549.22 8664.67,2516.56"/>
    <poly id="454001588" type="unknown" color="51,128,255" fill="0" layer="-1.00" shape="8520.63,2471.15 8513.50,2491.64 8490.72,2481.25"/>
    <poly id="455077699" type="boundary.administrative" color="128,0,51" fill="0" layer="-12.00" shape="5987.86,2102.87 6418.77,2115.16 6998.15,2137.74 7039.88,2137.43 7126.36,2116.02 7157.44,2109.87 7196.22,2122.10 7246.15,2135.34 7261.67,2139.75 7354.34,2144.00 8154.10,2167.02 8838.74,2186.79 8887.29,2183.12 9119.37,2190.57"/>
    <poly id="455082445" type="boundary.administrative" color="128,0,51" fill="0" layer="-12.00" shape="9119.37,2190.57 9118.69,2061.05 9114.94,2029.13 9118.00,1994.36 9008.96,1262.34 8994.49,1241.02 8888.37,558.73 8727.19,-485.83 8590.19,-1398.92 8418.24,-2557.83"/>
    <poly id="455082448" type="boundary.administrative" color="128,0,51" fill="0" layer="-12.00" shape="9119.37,2190.57 10322.29,2223.12"/>
    <poly id="456458152" type="unknown" color="51,128,255" fill="0" layer="-1.00" shape="8429.40,2183.74 8553.93,2187.55 8651.23,2190.52 8756.85,2193.76 8827.77,2195.93 8844.79,2196.45 9005.60,2202.25"/>
    <poly id="456458153" type="unknown" color="51,128,255" fill="0" layer="-1.00" shape="8429.40,2183.74 8429.95,2186.28 8431.00,2192.81 8431.47,2195.09"/>
    <poly id="456458233" type="unknown" color="51,128,255" fill="0" layer="-1.00" shape="8431.47,2195.09 8436.94,2234.82 8449.21,2324.06 8453.66,2373.30 8461.58,2418.95 8468.03,2468.36 8476.29,2524.44 8505.06,2725.30 8510.91,2777.02 8525.57,2878.12 8533.79,2934.85 8541.87,2994.43 8546.51,3028.64 8552.64,3070.46 8554.30,3082.85 8563.97,3148.32 8574.14,3211.61 8582.02,3265.56 8583.10,3273.00 8587.51,3295.11"/>