<?xml version="1.0" encoding="UTF-8"?>

<!-- generated on 04/24/18 18:15:32 by SUMO duarouter Version 0.25.0
<?xml version="1.0" encoding="UTF-8"?>

<configuration xmlns:xsi="http://www.w3.org/2001/XMLSchema-instance" xsi:noNamespaceSchemaLocation="http://sumo.dlr.de/xsd/duarouterConfiguration.xsd">

    <input>
        <net-file value="amirkabirNew.net.xml"/>
        <trip-files value="trips.trips.xml"/>
    </input>

    <output>
        <output-file value="amirkabirNew.rou.xml"/>
    </output>

    <processing>
        <ignore-errors value="true"/>
    </processing>

    <time>
        <begin value="0"/>
        <end value="100.0"/>
    </time>

    <report>
        <no-warnings value="true"/>
        <no-step-log value="true"/>
    </report>

</configuration>
-->

<routes xmlns:xsi="http://www.w3.org/2001/XMLSchema-instance" xsi:noNamespaceSchemaLocation="http://sumo.dlr.de/xsd/routes_file.xsd">
    <vehicle id="0" depart="0.00">
        <route edges="478991545#0 -478991545#0 36381903#2 -36390543#2 -36390543#1 -36390543#0 478991542#3 478991542#4 478991540 467563782 210304106#4 210304106#5 210304106#6 210304106#7 210304106#8 210304106#9 210304106#10 210304106#11 560426461#0 560426461#1 560426461#2 428558029 576911643 210304099#1 210304099#2 210304099#3 210304099#4 210304099#5 210304099#6 210304099#7 210304099#8 210304099#9 210304099#10 490554857#5 490554857#6 38682897#0 38682897#1 38682897#2 38682897#3 38682897#4 38682897#5 38682897#6 210304183#0 210304183#1 210304183#2 210304183#3 210304183#4 210304183#5 210304100#1 210304100#2 210304100#3 210304100#4 210304100#5 210304100#6 456458233#0 456458233#1 456458233#2 456458233#3 456458233#4 -433012747#5 382662228#4"/>
    </vehicle>
    <vehicle id="1" depart="1.00">
        <route edges="467258054 161072091#1 191682852 380240716#19 380240716#20 380240716#21 380240716#22 380240716#23 380240716#24 380240716#25 380240716#26 380240716#27 380240716#28 71881365 560474327#1 560474327#2 560474327#3 560474327#4 560474327#5 560474327#6 560474327#7 560474327#8 560474327#9 560426461#0 560426461#1 560426461#2 428558029 576911643 210304099#1 210304099#2 210304099#3 210304099#4 210304099#5 210304099#6 210304099#7 210304099#8 210304099#9 210304099#10 490554857#5 490554857#6 38682897#0 38682897#1 38682897#2 38682897#3 38682897#4 38682897#5 38682897#6 210304183#0 210304183#1 210304183#2 210304183#3 210304183#4 210304183#5 210304100#1 210304100#2 210304100#3 210304100#4 210304100#5 210304100#6 456458234#0 456458234#1 456458234#2 456458234#3 456458234#4 456458234#5 456458234#6 456458234#7 456458234#8 456458234#9 504760639#0 504760639#1 504760639#2 4295231#1 4295231#2 4344065#0 4344065#1 35103840 51260924#0 51260924#1"/>
    </vehicle>
    <vehicle id="5" depart="5.00">
        <route edges="161072228#2 481986612#3 481986612#4 481986612#5 481986612#6 481986612#7 481986612#8 481986612#9 481986612#10 481986612#11 481986612#12 380240716#13 380240716#14 380240716#15 380240716#16 464517747#19 171937870#0 171937870#1"/>
    </vehicle>
    <vehicle id="6" depart="6.00">
        <route edges="-387310476#0 490554857#0 490554857#1 490554857#2 490554857#3 490554857#4 490554857#5 490554857#6 38682897#0 38682897#1 38682897#2 38682897#3 38682897#4 38682897#5 38682897#6 210304183#0 210304183#1 210304183#2 210304183#3 463299695#1 463299695#2 463299695#3 521826804#0 521826804#1 521826804#2 183425238#0 183425238#1 183425238#2"/>
    </vehicle>
    <vehicle id="7" depart="7.00">
        <route edges="191884465#1 191884465#2 191884465#3 280006880#1 280006880#2 210304184#0 210304184#1 210304184#2 198561625#1 35103861#0 35103861#1 35103861#2 35103861#3 35103861#4 35103861#5 35103861#6 35103861#7 35103861#8 478991542#0 478991542#1 478991542#2 478991542#3 478991542#4 478991540 467563782 210304106#4 210304106#5 210304106#6 210304106#7 210304106#8 210304106#9 210304106#10 210304106#11 560426461#0 560426461#1 560426461#2 428558029 576911643 210304099#1 210304099#2 210304099#3 210304099#4 210304099#5 210304099#6 210304099#7 210304099#8 210304099#9 210304099#10 490554857#5 490554857#6 38682897#0 38682897#1 38682897#2 38682897#3 38682897#4 38682897#5 38682897#6 210304183#0 210304183#1 210304183#2 210304183#3 210304183#4 210304183#5 210304100#1 210304100#2 210304100#3 210304100#4 210304100#5 210304100#6 456458234#0 456458234#1 456458234#2 456458234#3 456458234#4 456458234#5 456458234#6 456458234#7 456458234#8 456458234#9 504760639#0 433013437#0 433013437#1 433013437#2 433013437#3 433013437#4 433013437#5 193899237#12 193899237#13"/>
    </vehicle>
    <vehicle id="8" depart="8.00">
        <route edges="38681260#9 38681260#10 194310306#0 194310306#1 194310306#2 51766565#0 51766565#1 51766565#2 51766565#3 51766565#4 480208134#0 480208134#1 478988353#1 478988353#2 478988353#3 38682895#5 576911646 210304108#0 467784259 560426461#2 36282934#0 36282934#1 36282934#2 36282934#3 36282934#4 36282934#5 36282934#6 36282934#7 36282934#8 36282934#9 36282934#10 36282934#11 36283128#0 36283128#1 36283128#2 36283128#3 36283128#4 36283128#5 36283128#6 36283128#7 36283128#8 36283128#9 36283128#10 36283128#11 36283128#12 36283128#13 36283128#14 36283128#15 36283128#16 36283128#17 36283128#18 36283128#19 36283128#20 36283128#21 36283128#22 36283128#23 36283128#24 36283128#25 36283128#26 36283128#27 36283128#28 36283128#29 461839271#1 461839271#2 461839271#3 461839254#0 461839254#1 461839254#2 461839254#3 461839254#4 461839254#5 461839254#6 461839254#7 461839254#8 -474184056"/>
    </vehicle>
    <vehicle id="9" depart="9.00">
        <route edges="191574165 191576852#0 -463502231 -191573227#0 461839254#1 461839254#2 191568902#0 191568902#1 191568902#2 191568902#3 191568902#4 191568902#5 191568902#6 191568902#7 191568902#8 191568902#9 560749606#13 560749606#14 560749606#15 560749606#16 560749606#17 560749607#0 560749607#1 560749607#2 560749607#3 560749607#4 560749607#5 560749607#6 560749607#7 560749607#8 560749607#9 560749607#10 560749607#11 560749607#12 560749607#13 560749607#14 560474327#0 560474327#1 560474327#2 560474327#3 560474327#4 560474327#5 560474327#6 560474327#7 560474327#8 560474327#9 560426460 210304108#2 210304108#3 210304108#4 210304108#5 210304108#6 560649166#0 560649166#1 560649166#2 576911645 280006880#1 280006880#2 280006880#3 280006880#4 280006880#5 351933780 330649754#3 565264051 330649740#1 194643652#1 194643652#2 210304204#0 210304204#1"/>
    </vehicle>
    <vehicle id="10" depart="10.00">
        <route edges="464517747#20 464517747#21 464517747#22 464517747#23 464517747#24 330197294#0 330197294#1 330197294#2 210304099#2 210304099#3 210304099#4 210304099#5 210304099#6 210304099#7 210304099#8 210304099#9 210304099#10 490554857#5 490554857#6 38682897#0 38682897#1 38682897#2 38682897#3 38682897#4 38682897#5 38682897#6 210304183#0 210304183#1 210304183#2 210304183#3 210304183#4 210304183#5 210304100#1 210304100#2 210304100#3 210304100#4 210304100#5 210304100#6 456458234#0 456458234#1 456458234#2 456458234#3 456458234#4 456458234#5 456458234#6 456458234#7 456458234#8 456458234#9 504760639#0 504760639#1 504760639#2 382134122#0 382134122#1 382134122#2 382134122#3 382134122#4 382134122#5 382134122#6 382134122#7 382134122#8 382134122#9 382134122#10 382134122#11 467491530#0 467491530#1 467491530#2 467491530#3 467491530#4 467491530#5 467491530#6 467491530#7 467491530#8 -333246024#27 -333246024#26 -333246024#25 -333246024#24 -333246024#23 -333246024#22 -333246024#21 -333246024#20 -333246024#19 -333246024#18 -333246024#17 -333246024#16 -333246024#15 -333246024#14 417635306#13"/>
    </vehicle>
    <vehicle id="12" depart="12.00">
        <route edges="461984372#1 461984372#2 380240519#10 380240519#11 -382662228#8 387347114#8 456458153#1 456458153#2 456458233#0 456458233#1 456458233#2 456458233#3 456458233#4 456458233#5 456458233#6 456458233#7 456458233#8 456458233#9 456458233#10 456458233#11 456458233#12 456458233#13 456458233#14 456458233#15 456458233#16 456458233#17 456458233#18 456458233#19 71881368#7 71881368#8 71881368#9 138742265#0 138742265#1 138742265#2 138742265#3 138742265#4 138742265#5 138742265#6 138742265#7 138742265#8 138742265#9 161072045 161072297#0 161072297#1 161072297#2 524694607 464517745 464517746 464517752#0 464517752#1 428543483#0 428543483#1 428543483#2 453999305 463220102#0 463220102#1 463220102#2 463220102#3 463220102#4 463220102#5"/>
    </vehicle>
    <vehicle id="13" depart="13.00">
        <route edges="36283214#0 36283214#1 36283214#2 463502241 518448076 36472707#5 191579273#4 463502240#0 463502240#1 463502240#2 463502240#3 463502240#4 463502240#5 380240716#26 308241818#0 308241818#1 308241818#2 308241818#3 308241818#4 308241818#5 448206150#1 448206150#2 448206150#3 448206150#4 448206150#5 464517747#21 157934987#0 157934987#1 157934987#2 157934987#3 157934987#4 157934987#5 467452783#0 467452783#1 467452783#2 71880769#6 71880769#7 71880769#8 71880769#9 71880769#10 71880769#11 71880769#12 71880769#13 71880769#14 161072171#0 161072171#1"/>
    </vehicle>
    <vehicle id="14" depart="14.00">
        <route edges="71881371#10 456458233#6 456458233#7 380240716#0 380240716#1 380240716#2 380240716#3 380240716#4 380240716#5 380240716#6 380240716#7 380240716#8 380240716#9 380240716#10 380240716#11 380240716#12 380240716#13 380240716#14 380240716#15 380240716#16 380240716#17 380240716#18 380240716#19 380240716#20 380240716#21 380240716#22 380240716#23 380240716#24 380240716#25 380240716#26 380240716#27 380240716#28 71881365 560474327#1 560474327#2 36282935 561576995#0 561576995#1 561576995#2 561576995#3 561576995#4 561576995#5 561576995#6 561576995#7 561576995#8 561576995#9 561576995#10 561576995#11 321085005#0 321085005#1 205078335"/>
    </vehicle>
    <vehicle id="15" depart="15.00">
        <route edges="-454337335 164595228 504265760#0 504265760#1 504265760#2 454336810#0 454336810#1 32056795#0 32056795#1 32056795#2 461899397#1 461899397#2 462465476#0 462465476#1 462465476#2 462465476#3 462465476#4 462465476#5 161072298#0 161072298#1 161072298#2 330197298 453999306#0 161072256#0 161072256#1 161072256#2 161072256#3 161072256#4 161072256#5 161072256#6 161072256#7 161072256#8 161072301#1 161072301#2 161072301#3 161072301#4 161072301#5 161072301#6 161072301#7 161072301#8 161072301#9 161072301#10 71881368#1 71881368#2 71881368#3 4295237#0 4295237#1 4295237#2 425049540#17 425049540#18 425049540#19 425049540#20 425049540#21 425049540#22 425049540#23 425049540#24 425049540#25 425049540#26 425049540#27 -16284691#6 -16284691#5 -16284691#4 -16284691#3 -16284691#2 -16284691#1 -16284691#0 174845593#8 -191528764"/>
    </vehicle>
    <vehicle id="16" depart="16.00">
        <route edges="387347114#2 380240413#1 456458234#9 504760639#0 433013437#0 433013437#1 433013437#2 433013437#3 433013437#4 433013437#5 433013437#6 433013437#7"/>
    </vehicle>
    <vehicle id="18" depart="18.00">
        <route edges="-466717576#1 161072113#1 -157934984#9 -157934984#8 -157934984#7 -157934984#6 -157934984#5 -157934984#4 -157934984#3 380240716#9 380240716#10 380240716#11 380240716#12 380240716#13 380240716#14 380240716#15 380240716#16 464517747#19 464517747#20 464517747#21 464517747#22 464517747#23 -428764434#1 210304176#0 210304176#1 -210304142"/>
    </vehicle>
    <vehicle id="19" depart="19.00">
        <route edges="463301833#1 -463301833#1 -463301833#0 -161072242 161072287#6 463301832#0 380240716#7 380240716#8 380240716#9 380240716#10 380240716#11 380240716#12 380240716#13 380240716#14 380240716#15 380240716#16 380240716#17 380240716#18 380240716#19 380240716#20 380240716#21 380240716#22 36283128#0 36283128#1 36283128#2 36283128#3 36283128#4 36283128#5 35809647#0 -315619326 36472706#3"/>
    </vehicle>
    <vehicle id="22" depart="22.00">
        <route edges="380240716#25 380240716#26 380240716#27 322310597#0 322310597#1 322310597#2 161072219#1 463502240#1 463502240#2 71881364#0 71881364#1 71881364#2 71881364#3 71881364#4 36283128#1 36283128#2 36283128#3 36283128#4 36283128#5 36283128#6 36283128#7 36283128#8 36283128#9 36283128#10 161072243#0 161072243#1 464517747#3 138742965 161072296#0 161072296#1 161072296#2 390584474"/>
    </vehicle>
    <vehicle id="24" depart="24.00">
        <route edges="194285505#0 194285504#1 73035802#0 73035802#1 462463483 485559470#3 485559470#4 485559470#5 485559470#6 456458153#0 456458153#1 456458153#2 456458233#0 456458233#1 456458233#2 456458233#3 456458233#4 456458233#5 456458233#6 456458233#7 456458233#8 456458233#9 456458233#10 456458233#11 456458233#12 456458233#13 456458233#14 456458233#15 456458233#16 456458233#17 456458233#18 456458233#19 71881368#7 71881368#8 71881368#9 71881368#10 71881368#0 71881368#1 4294986#0 4294986#1 4294986#2 4294986#3 4294986#4 4294986#5 4294986#6 4294986#7 4294986#8 4294986#9 4294986#10 4294986#11 4294986#12 4294986#13 59864315 137695570#0 137695570#1 36333815#0 36333811#0"/>
    </vehicle>
    <vehicle id="25" depart="25.00">
        <route edges="-473041622#1 -473041622#0 463502235#1 473041621#0 473041621#1 191579271 473041795 36283128#14 36283128#15 36283128#16 36283128#17 191681279#0 191681279#1 191681279#2 191681279#3 191681279#4 428543483#0 428543483#1 428543483#2 453999305 462465476#1 462465476#2 462465476#3 462465476#4 462465476#5 161072298#0 161072298#1 161072298#2 330197299 454338193#0 454338193#1 454338193#2 454338193#3 454338193#4 454338193#5 454338193#6 454338193#7 454338193#8 454338193#9"/>
    </vehicle>
    <vehicle id="26" depart="26.00">
        <route edges="382662228#14 -382662228#14 -382662228#13 -382662228#12 -382662228#11 -382662228#10 73037663#2 485559470#4 485559470#5 485559470#6 456458152#0 456458152#1 456458152#2 456458152#3 456458152#4 210304179#0 210304179#1 210304179#2 210304104#1 210304104#2 210304104#3 210304104#4 210304104#5 210304104#6 490554857#8 490554857#0 490554857#1 490554857#2 490554857#3 490554857#4 490554857#5 71880769#0 71880769#1 71880769#2 71880769#3 71880769#4 210304181#0 210304181#1 428764433 -466711260#4 -466711260#3 -466711260#2 -466711260#1 -466711260#0 463518866#0 463518866#1 210304196#3 210304196#4 210304196#5 210304196#6 210304196#7 210304196#8 466713648"/>
    </vehicle>
    <vehicle id="27" depart="27.00">
        <route edges="210304128 36282934#1 36282934#2 36282934#3 36282934#4 36282934#5 36282934#6 36282934#7 448206150#2 448206150#3 448206150#4 448206150#5 464517747#21 464517747#22 464517747#23 464517747#24 330197294#0 330197294#1 330197294#2 210304099#2 210304099#3 210304099#4 210304099#5 210304099#6 210304099#7 210304099#8 210304099#9 210304099#10 490554857#5 490554857#6 38682897#0 38682897#1 38682897#2 38682897#3 38682897#4 38682897#5 38682897#6 210304183#0 210304183#1 210304183#2 210304183#3 210304183#4 210304183#5 210304100#1 210304100#2 210304100#3 210304100#4 210304100#5 210304100#6 456458234#0 456458234#1 456458234#2 456458234#3 456458234#4 456458234#5 4295229#0 4295229#1 4295229#2 4295229#3 4295229#4 4295229#5 4295229#6 4295229#7 4295229#8 4295229#9 4295229#10 4295229#11 4295229#12 4295229#13 181981543#0 181981543#1 181981543#2 4295239#0 4295239#1 4295239#2 4295239#3 4295239#4 4295239#5 4295239#6 4295239#7 4295239#8 4295239#9 4295239#10 417635306#6 417635306#7 152093765#1 152093765#2 152093765#3 152093765#4 152093765#5 152093765#6 -473408886#0 27251830#0 27251830#1 27251830#2 27251830#3 27251830#4 27251830#5 27251830#6"/>
    </vehicle>
    <vehicle id="28" depart="28.00">
        <route edges="138741324#4 464071725 -138742441#7 -138742441#6 -138742441#5 -138742441#4 -138742441#3 -138742441#2 -138742441#1 -138742441#0 161072256#0 161072256#1 161072256#2 161072256#3 4516018#0 4516018#1 4516018#2 4516018#3 4516018#4 4516018#5 481986612#0 481986612#1 481986612#2 481986612#3 481986612#4 481986612#5 481986612#6 481986612#7 481986612#8 481986612#9 481986612#10 481986612#11 481986612#12 380240716#13 380240716#14 380240716#15 380240716#16 464517747#19 464517747#20 464517747#21 464517747#22 464517747#23 464517747#24 464517747#25 464517747#26 464517747#27 210304131 210304165#0 478988353#0 478988353#1 478988353#2 478988353#3 38682895#5 576911646 210304108#0 210304108#1 210304108#2 210304108#3 210304108#4 210304108#5 210304108#6 560649166#0 560649166#1 560649166#2 576911645 210304130#0 210304130#1"/>
    </vehicle>
    <vehicle id="29" depart="29.00">
        <route edges="464517747#1 464517747#2 464517747#3 464517747#4 464517747#5 464517747#6 464517747#7 464517747#8 464517747#9 464517747#10 464517747#11 464517747#12 464517747#13 464517747#14 464517747#15 464517747#16 464517747#17 464517747#18 464517747#19 464517747#20 464517747#21 157934987#0 157934987#1 157934987#2 157934987#3 157934987#4 157934987#5 467452783#0 467452783#1 467452783#2 467452783#3 467452783#4 467452783#5 467452783#6 467452783#7 467452783#8 467452783#9 463303144#0 71881371#0 71881371#1 71881371#2 71881371#3 71881371#4 71881371#5 71881371#6 71881371#7 71881371#8 71881371#9 71881371#10"/>
    </vehicle>
    <vehicle id="31" depart="31.00">
        <route edges="191527186#2 191527186#3 32964586#3 32964586#4 32964586#5 32964586#6 32964586#7 32964586#8 32964586#9 32964586#10 161072256#7 161072256#8 161072301#1 161072301#2 161072301#3 71881373 138742265#6 138742265#7 138742265#8 138742265#9 161072045 161072297#0 161072297#1 161072297#2 524694607 464517745 464517746 464517752#0 464517752#1 428543483#0 191681284#0 191681284#1 191681284#2 191681284#3 191681284#4 191681284#5 191681284#6 36283128#20 36283128#21 36283128#22 36283128#23 -191576939#1"/>
    </vehicle>
    <vehicle id="32" depart="32.00">
        <route edges="27251830#0 27251830#1 27251830#2 -191541783#2 -191541783#1 -191541783#0 36326670#3 36326670#4 36326670#5 36326670#6 36326670#7 36326670#8 36326670#9 36326670#10 36326670#11 36326670#12 36326670#13 36326670#14 36326670#15 152829207#12 152829207#13 152829207#14 152829207#15 152829207#16 152829207#17 152829207#18 152829207#19 152829207#20 152829207#21 152829207#22 152126842#0 152126842#1 152126842#2 152126842#3 152126842#4 464580709#3 464580709#4 464580709#5 468427207 59864304#1 59864304#2 59864304#3 59864304#4 59864315 137695570#0 137695570#1 137695570#2 137695570#3 377575397#0 138742265#4 138742265#5 138742265#6 138742265#7 138742265#8 138742265#9"/>
    </vehicle>
    <vehicle id="33" depart="33.00">
        <route edges="4295245#8 4295245#9 4295245#10 4295245#11 72879993 382134122#3 382134122#4 382134122#5 -72879917#1 -72879917#0 -506875003#2 -506875003#1 506875003#1"/>
    </vehicle>
    <vehicle id="34" depart="34.00">
        <route edges="-467485530#1 -467485530#0 181526861#1 181526861#2 210304100#3 210304100#4 210304100#5 210304100#6 456458233#0 456458233#1 456458233#2 456458233#3 456458233#4 456458233#5 456458233#6 456458233#7 456458233#8 456458233#9 456458233#10 456458233#11 456458233#12 456458233#13 456458233#14 456458233#15 456458233#16 456458233#17 456458233#18 456458233#19 71881368#7 71881368#8 71881368#9 71881368#10 71881368#0 71881368#1 4294986#0 4294986#1 4294986#2 4294986#3 4294986#4 4294986#5 4294986#6 4294986#7 4294986#8 4294986#9 4294986#10 4294986#11 152126792#0 152126792#1 425049540#3 425049540#4 425049540#5 425049540#6 -511157043 511157043"/>
    </vehicle>
    <vehicle id="35" depart="35.00">
        <route edges="467491536#2 -35103835#3 -35103835#2 -35103835#1 -35103835#0 -467620408 382134121#1 382134121#2 382134121#3 382134121#4 382134121#5 382134121#6 382134121#7 382134121#8 382134121#9 382134121#10 382134121#11 382134121#12 382134121#13 382134121#14 382134121#15 382134121#16 382134121#17 382134121#18 382134121#19 382134121#20 71881368#5 71881368#6 71881368#7 71881368#8 71881368#9 138742265#0 138742265#1 138742265#2 138742265#3 138742265#4 138742265#5 138742265#6 138742265#7 138742265#8 480654423#0 480654423#1 71880769#34 161072054#0 -405572570 32964588#1 32964588#2 32964588#3 32964588#4 32964588#5 32964588#6 469867710#0 469867710#1 -161072235 32964574#7 161072125 138742441#7 138742441#8 138742441#9 161072231 161072223#1 161072053#0 161072053#1 161072053#2 161072053#3 161072126 32964565#4 32964565#5 32964565#6 32964565#7"/>
    </vehicle>
    <vehicle id="36" depart="36.00">
        <route edges="-191436341 152126840#5 152126840#6 36326669#5 36326669#6 36326669#7 36326669#8 36326669#9 59864304#0 59864304#1 59864304#2 59864304#3 59864304#4 59864315 137695570#0 137695570#1 137695570#2 137695570#3 377575397#0 138742265#4 138742265#5 138742265#6 138742265#7 138742265#8 480654423#0 480654423#1 71880769#34 161072054#0 -405572570 32964588#1 32964588#2 32964588#3 32964588#4 32964588#5 32964588#6 469867710#0 469867710#1 469867710#2 191528440#0 191528440#1 191528440#2 191528440#3"/>
    </vehicle>
    <vehicle id="37" depart="37.00">
        <route edges="-466717925 4516015#5 4516015#6 4516015#7 -463518872#1 157934985#2 157934985#3 157934985#4 157934985#5 157934985#6 157934985#7 210304183#2 210304183#3 210304183#4 210304183#5 210304100#1 210304100#2 210304100#3 210304100#4 210304100#5 210304100#6 456458234#0 456458234#1 456458234#2 456458234#3 456458234#4 456458234#5 4295229#0 4295229#1 4295229#2 4295229#3 4295229#4 4295229#5 4295229#6 4295229#7 4295229#8 4295229#9 4295229#10 4295229#11 4295229#12 4295229#13 181981543#0 181981543#1 181981543#2 4295239#0 4295239#1 4295239#2 4295239#3 4295239#4 4295239#5 4295239#6 4295239#7 526577994#0 526577994#1 526577995#4"/>
    </vehicle>
    <vehicle id="38" depart="38.00">
        <route edges="-16284691#6 16284691#6 425049540#28 425049540#29 425049540#30 4318811#2 4318811#3 4318811#4 36326642#0 36326642#1 36326642#2 36326642#3 36326642#4 36326642#5 36326642#6 36326642#7 36326642#8 36326642#9 36326642#10 36326642#11 36326642#12 36326642#13 36326642#14 36326642#15 36326642#16 36326642#17 36326642#18 36326642#19 380240519#9 380240519#10 380240519#11 380240519#12 456458152#0 456458152#1 456458152#2 456458152#3 456458152#4 210304179#0 210304179#1 210304179#2 210304104#1 210304104#2 210304104#3 210304104#4 210304104#5 210304104#6 490554857#8 490554857#0 490554857#1 38682895#0 38682895#1 38682895#2 38682895#3 51683395#0 51683395#1 -194306250#2 -194306250#1 478988343"/>
    </vehicle>
    <vehicle id="39" depart="39.00">
        <route edges="181526300#1 181526300#2 4295231#3 4295231#4 380240519#0 380240519#1 380240519#2 380240519#3 380240519#4 380240519#5 380240519#6 380240519#7 380240519#8 380240519#9 380240519#10 380240519#11 380240519#12 456458152#0 456458152#1 456458152#2 456458152#3 456458152#4 210304179#0 210304179#1 210304179#2 210304104#1 210304104#2 210304104#3 210304104#4 210304104#5 210304104#6 490554857#8 490554857#0 490554857#1 38682895#0 38682895#1 38682895#2 38682895#3 38682895#4 38682895#5 576911646 210304108#0 467784259 560426461#2 36282934#0 36282934#1 36282934#2 36282934#3 36282934#4 36282934#5 36282934#6 36282934#7 36282934#8 36282934#9 36282934#10 36282934#11 36283128#0 36283128#1 36283128#2 36283128#3 36283128#4 36283128#5 36283128#6 36283128#7 36283128#8 36283128#9 36283128#10 36283128#11 36283128#12 36283128#13 36283128#14 36283128#15 36283128#16 36283128#17 36283128#18 36283128#19 36283128#20 36283128#21 36283128#22 36283128#23 36283128#24 36283128#25 36283128#26 36283128#27 36283128#28 36283128#29 461839271#1 461839271#2 461839270 461839272#1 461839272#2 461839272#3 461839272#4 454384818 452264460#2 452264460#3 454384068 -560720936#6 -560720936#5 32964619#0 32964619#1 32964619#2 32964619#3 -164595023"/>
    </vehicle>
    <vehicle id="40" depart="40.00">
        <route edges="502926362 -502926362 557392530#4 557392530#5 557392530#6 38682895#2 38682895#3 38682895#4 38682895#5 576911646 210304108#0 467784259 560426461#2 36282934#0 36282934#1 36282934#2 36282934#3 36282934#4 36282934#5 36282934#6 36282934#7 36282934#8 36282934#9 36282934#10 36282934#11 36283128#0 36283128#1 36283128#2 36283128#3 36283128#4 36283128#5 36283128#6 36283128#7 36283128#8 36283128#9 36283128#10 36283128#11 36283128#12 36283128#13 36283128#14 36283128#15 36283128#16 36283128#17 191681279#0 191681279#1 191681279#2 191681279#3 191681279#4 428543483#0 428543483#1 428543483#2 453999305 462465476#1 462465476#2 161072155 67917633#7 161072061 -32964545#0 32964565#6 161072129"/>
    </vehicle>
    <vehicle id="42" depart="42.00">
        <route edges="466717236 161072287#1 161072233#0 161072233#1 161072233#2 456458233#16 456458233#17 456458233#18 456458233#19 71881368#7 71881368#8 71881368#9 71881368#10 71881368#0 71881368#1 71881368#2 71881368#3 4295237#0 4295237#1 4295237#2 4295237#3 59864301#0 59864301#1 59864301#2 59864301#3 59864301#4 59864301#5 59864301#6 59864301#7 59864301#8 59864301#9 -152126836#1 152126832#3"/>
    </vehicle>
    <vehicle id="43" depart="43.00">
        <route edges="137695576#5 -445177087 -85479574#3 -85479574#2 -85479574#1 -85479574#0 161072301#1 161072301#2 161072301#3 161072301#4 161072301#5 161072301#6 161072301#7 161072301#8 161072301#9 161072301#10 71881368#1 71881368#2 71881368#3 4295237#0 4295237#1 4295237#2 425049540#17 425049540#18 425049540#19 425049540#20 425049540#21 425049540#22 425049540#23 425049540#24 425049540#25 425049540#26 425049540#27 425049540#28 425049540#29 425049540#30 4318811#2 4318811#3 4318811#4 36326642#0 36326642#1 36326642#2 36326642#3 36326642#4 36326642#5 36326642#6 36326642#7 36326642#8 36326642#9 36326642#10"/>
    </vehicle>
    <vehicle id="44" depart="44.00">
        <route edges="191430304#1 59864301#7 59864301#8 59864301#9 59864301#10 59864301#11 -36326669#1 -36326669#0 468394366#0 526577996 -526577995#5 -526577995#4 -526577995#3 -526577995#2 -526577995#1 -526577995#0 152829207#13 152093768#0 152093768#1 152093768#2 152093768#3 152093768#4 152093768#5 473408887#0 473408887#1 473408887#2 473408887#3"/>
    </vehicle>
    <vehicle id="46" depart="46.00">
        <route edges="464071725 -138742441#7 -138742441#6 -138742441#5 -138742441#4 -138742441#3 -138742441#2 -138742441#1 -138742441#0 161072256#0 161072256#1 161072256#2 161072256#3 161072256#4 161072256#5 161072256#6 161072256#7 161072256#8 161072301#1 161072301#2 161072301#3 161072301#4 161072301#5 161072301#6 161072301#7 161072301#8 161072301#9 161072301#10 71881368#1 71881368#2 71881368#3 4295237#0 4295237#1 4295237#2 4295237#3 59864301#0 59864301#1 59864301#2 59864301#3 59864301#4 59864301#5 59864301#6 59864301#7 59864301#8 59864301#9 59864301#10 59864301#11 36326669#2 59864275#0 59864275#1 59864275#2 59864275#3 59864275#4 59864275#5 59864275#6 59864275#7 152829207#19 152126840#0 191436343"/>
    </vehicle>
    <vehicle id="47" depart="47.00">
        <route edges="460075033#0 460075033#1 460075033#2 460075033#3 204508405#1 152126823 4543528#4 4543528#5 4543528#6 4543528#7 4543528#0 4297760#0 4297760#1 464580709#0 464580709#1 464580709#2 464580709#3 464580709#4 464580709#5 468427207 59864304#1 59864304#2 59864304#3 59864304#4 59864315 137695570#0 137695570#1 137695570#2 137695570#3 377575397#0 377575397#1 377575397#2 377575397#3 377575397#4 377575397#5 377575397#6 377575397#7 377575397#8 377575397#9 377575397#10 161072287#0 161072287#1 161072287#2 161072287#3 161072287#4 161072287#5 161072287#6 463301832#0 380240716#7 380240716#8 380240716#9 380240716#10 380240716#11 380240716#12 380240716#13 380240716#14 380240716#15 380240716#16 380240716#17 380240716#18 380240716#19 380240716#20 380240716#21 380240716#22 380240716#23 380240716#24 308243377#0 308243377#1"/>
    </vehicle>
    <vehicle id="48" depart="48.00">
        <route edges="382134122#2 382134122#3 382134122#4 382134122#5 382134122#6 382134122#7 382134122#8 382134122#9 382134122#10 382134122#11 467491530#0 467491530#1 467491530#2 467491530#3 467491530#4 467491530#5 467491530#6 467491526 382134121#4 382134121#5 382134121#6 382134121#7 382134121#8 382134121#9 382134121#10 382134121#11 382134121#12 382134121#13 382134121#14 382134121#15 382134121#16 382134121#17 382134121#18 382134121#19 382134121#20 71881368#5 71881368#6 71881368#7 71881368#8 71881368#9 138742265#0 138742265#1 138742265#2 138742265#3 138742265#4 138742265#5 138742265#6 138742265#7 138742265#8 480654423#0 480654423#1 71880769#34 161072054#0 -405572570 32964588#1 32964588#2 32964588#3 191528445#0 191528445#1 161072244 -138742441#1 -138742441#0 453999306#1 161072044 161072301#0"/>
    </vehicle>
    <vehicle id="51" depart="51.00">
        <route edges="152093750#0 152093750#1 152093750#2 152093750#3 152093750#4 152093750#5 152093750#6 191541075#0 191541075#1 191541075#2 36326670#9 36326670#10 36326670#11 36326670#12 36326670#13 36326670#14 417635306#4 417635306#5 417635306#6 4591457#0 4591457#1 4591457#2 4591457#3 4591457#4 4591457#5 4591457#6 4591457#7 59276965#0 59276965#1 59276965#2 382134121#11 181981543#0 181981543#1 181981543#2 4295239#0 4295239#1 4295239#2 181981539"/>
    </vehicle>
    <vehicle id="52" depart="52.00">
        <route edges="191573227#1 -191573227#1 -191573227#0 -461839254#0 461839272#0 461839272#1 461839272#2 461839272#3 461839272#4 454384815#0 454384815#1 454384815#2 454384815#3 454384815#4 454384815#5 454384815#6 191567979 454272516#4 191568908#0 191568908#1 191568908#2 191568908#3 191573239#0 191573239#1"/>
    </vehicle>
    <vehicle id="53" depart="53.00">
        <route edges="161072293#1 138742428#2 138742428#3 -43703156#2 -43703156#1 161072263#0 161072204#1 466708970 71880769#28 71880769#29 71880769#30 71880769#31 71880769#32 71880769#33 71880769#34 161072256#6 161072256#7 161072256#8 161072301#1 161072301#2 161072301#3 161072301#4 161072301#5 161072301#6 161072301#7 161072301#8 161072301#9 161072301#10 71881368#1 71881368#2 71881368#3 4295237#0 4295237#1 4295237#2 425049540#17 425049540#18 425049540#19 425049540#20 425049540#21 425049540#22 425049540#23 425049540#24 425049540#25 425049540#26 425049540#27 -16284691#6 -16284691#5 16284720#0 16284720#1 16284720#2"/>
    </vehicle>
    <vehicle id="54" depart="54.00">