<?xml version="1.0"?>
<!-- generated on 2018-04-24 18:15:31.463000 by $Id: randomTrips.py 19495 2015-12-02 12:36:28Z behrisch $
  options: -n amirkabirNew.net.xml -r amirkabirNew.rou.xml -e 100 -l
-->
<trips>
    <trip id="0" depart="0.00" from="478991545#0" to="382662228#4" />
    <trip id="1" depart="1.00" from="467258054" to="51260924#1" />
    <trip id="2" depart="2.00" from="454338193#9" to="-502926364" />
    <trip id="3" depart="3.00" from="161072063" to="387347124#0" />
    <trip id="4" depart="4.00" from="-335882983#1" to="-560720936#5" />
    <trip id="5" depart="5.00" from="161072228#2" to="171937870#1" />
    <trip id="6" depart="6.00" from="-387310476#0" to="183425238#2" />
    <trip id="7" depart="7.00" from="191884465#1" to="193899237#13" />
    <trip id="8" depart="8.00" from="38681260#9" to="-474184056" />
    <trip id="9" depart="9.00" from="191574165" to="210304204#1" />
    <trip id="10" depart="10.00" from="464517747#20" to="417635306#13" />
    <trip id="11" depart="11.00" from="-488607354" to="332271287#7" />
    <trip id="12" depart="12.00" from="461984372#1" to="463220102#5" />
    <trip id="13" depart="13.00" from="36283214#0" to="161072171#1" />
    <trip id="14" depart="14.00" from="71881371#10" to="205078335" />
    <trip id="15" depart="15.00" from="-454337335" to="-191528764" />
    <trip id="16" depart="16.00" from="387347114#2" to="433013437#7" />
    <trip id="17" depart="17.00" from="382627327#0" to="332271287#7" />
    <trip id="18" depart="18.00" from="-466717576#1" to="-210304142" />
    <trip id="19" depart="19.00" from="463301833#1" to="36472706#3" />
    <trip id="20" depart="20.00" from="161072053#1" to="448212350#1" />
    <trip id="21" depart="21.00" from="210304108#1" to="332271287#7" />
    <trip id="22" depart="22.00" from="380240716#25" to="390584474" />
    <trip id="23" depart="23.00" from="-469692994" to="161072220#1" />
    <trip id="24" depart="24.00" from="194285505#0" to="36333811#0" />
    <trip id="25" depart="25.00" from="-473041622#1" to="454338193#9" />
    <trip id="26" depart="26.00" from="382662228#14" to="466713648" />
    <trip id="27" depart="27.00" from="210304128" to="27251830#6" />
    <trip id="28" depart="28.00" from="138741324#4" to="210304130#1" />
    <trip id="29" depart="29.00" from="464517747#1" to="71881371#10" />
    <trip id="30" depart="30.00" from="465118802" to="473041618" />
    <trip id="31" depart="31.00" from="191527186#2" to="-191576939#1" />
    <trip id="32" depart="32.00" from="27251830#0" to="138742265#9" />
    <trip id="33" depart="33.00" from="4295245#8" to="506875003#1" />
    <trip id="34" depart="34.00" from="-467485530#1" to="511157043" />
    <trip id="35" depart="35.00" from="467491536#2" to="32964565#7" />
    <trip id="36" depart="36.00" from="-191436341" to="191528440#3" />
    <trip id="37" depart="37.00" from="-466717925" to="526577995#4" />
    <trip id="38" depart="38.00" from="-16284691#6" to="478988343" />
    <trip id="39" depart="39.00" from="181526300#1" to="-164595023" />
    <trip id="40" depart="40.00" from="502926362" to="161072129" />
    <trip id="41" depart="41.00" from="137695576#13" to="387347112" />
    <trip id="42" depart="42.00" from="466717236" to="152126832#3" />
    <trip id="43" depart="43.00" from="137695576#5" to="36326642#10" />
    <trip id="44" depart="44.00" from="191430304#1" to="473408887#3" />
    <trip id="45" depart="45.00" from="-448212350#1" to="-35103860" />
    <trip id="46" depart="46.00" from="464071725" to="191436343" />
    <trip id="47" depart="47.00" from="460075033#0" to="308243377#1" />
    <trip id="48" depart="48.00" from="382134122#2" to="161072301#0" />
    <trip id="49" depart="49.00" from="161072073" to="-448212350#0" />
    <trip id="50" depart="50.00" from="191577888#2" to="-448212350#0" />
    <trip id="51" depart="51.00" from="152093750#0" to="181981539" />
    <trip id="52" depart="52.00" from="191573227#1" to="191573239#1" />
    <trip id="53" depart="53.00" from="161072293#1" to="16284720#2" />
    <trip id="54" depart="54.00" from="442236414#0" to="161072243#1" />
    <trip id="55" depart="55.00" from="152093735" to="-4318808#2" />
    <trip id="56" depart="56.00" from="469698435" to="161072206#0" />
    <trip id="57" depart="57.00" from="463518872#1" to="-447528504" />
    <trip id="58" depart="58.00" from="161072033#0" to="-382662228#10" />
    <trip id="59" depart="59.00" from="-442236417" to="152126823" />
    <trip id="60" depart="60.00" from="-480208135" to="198561625#2" />
    <trip id="61" depart="61.00" from="161072254" to="469693468" />
    <trip id="62" depart="62.00" from="-161072113#1" to="461961970#4" />
    <trip id="63" depart="63.00" from="161072054#11" to="464517749" />
    <trip id="64" depart="64.00" from="194755446#0" to="464517747#13" />
    <trip id="65" depart="65.00" from="-467203514#1" to="-36283214#0" />
    <trip id="66" depart="66.00" from="472322820" to="-191544328" />
    <trip id="67" depart="67.00" from="193872492" to="34465106" />
    <trip id="68" depart="68.00" from="181981541" to="-191573233" />
    <trip id="69" depart="69.00" from="32964545#0" to="-466711260#0" />
    <trip id="70" depart="70.00" from="463220102#1" to="191541074" />
    <trip id="71" depart="71.00" from="-447526549" to="138742428#4" />
    <trip id="72" depart="72.00" from="-335882983#1" to="-210304155#0" />
    <trip id="73" depart="73.00" from="448212350#0" to="4392663#5" />
    <trip id="74" depart="74.00" from="380240716#15" to="181981540#2" />
    <trip id="75" depart="75.00" from="191430309" to="-485345405" />
    <trip id="76" depart="76.00" from="161072233#2" to="473042458" />
    <trip id="77" depart="77.00" from="191582832#0" to="333246024#9" />
    <trip id="78" depart="78.00" from="552975744#1" to="428764434#1" />
    <trip id="79" depart="79.00" from="222758855#0" to="-545825360#0" />
    <trip id="80" depart="80.00" from="-32964545#4" to="-382662228#11" />
    <trip id="81" depart="81.00" from="-382662228#10" to="-181526861#1" />
    <trip id="82" depart="82.00" from="-382662228#2" to="384139884#1" />
    <trip id="83" depart="83.00" from="194299449#2" to="-486290375#4" />
    <trip id="84" depart="84.00" from="-473045316#0" to="461961970#4" />
    <trip id="85" depart="85.00" from="164595083" to="-467204397" />
    <trip id="86" depart="86.00" from="480176840#0" to="-333246024#3" />
    <trip id="87" depart="87.00" from="-194291021" to="442236417" />
    <trip id="88" depart="88.00" from="384139881#7" to="461961970#4" />
    <trip id="89" depart="89.00" from="191431964#0" to="126628522" />
    <trip id="90" depart="90.00" from="308254157#1" to="210304165#6" />
    <trip id="91" depart="91.00" from="210304183#3" to="161072233#1" />
    <trip id="92" depart="92.00" from="-467491515" to="-402324831" />
    <trip id="93" depart="93.00" from="4295229#12" to="161072181#1" />
    <trip id="94" depart="94.00" from="490358260#2" to="-454001587" />
    <trip id="95" depart="95.00" from="-191574159" to="205078335" />
    <trip id="96" depart="96.00" from="191545121" to="191531729" />
    <trip id="97" depart="97.00" from="-194299447#0" to="191540454#0" />
    <trip id="98" depart="98.00" from="38681260#2" to="161072089" />
    <trip id="99" depart="99.00" from="-191574158" to="461961970#4" />
</trips>
