<?xml version="1.0" encoding="UTF-8"?>

<!-- generated on 05/30/18 11:31:22 by SUMO duarouter Version 0.25.0
<?xml version="1.0" encoding="UTF-8"?>

<configuration xmlns:xsi="http://www.w3.org/2001/XMLSchema-instance" xsi:noNamespaceSchemaLocation="http://sumo.dlr.de/xsd/duarouterConfiguration.xsd">

    <input>
        <net-file value="amirkabir.net.xml"/>
        <trip-files value="trips.trips.xml"/>
    </input>

    <output>
        <output-file value="amirkabir.rou.xml"/>
    </output>

    <processing>
        <ignore-errors value="true"/>
    </processing>

    <time>
        <begin value="0"/>
        <end value="200.0"/>
    </time>

    <report>
        <no-warnings value="true"/>
        <no-step-log value="true"/>
    </report>

</configuration>
-->

<routes xmlns:xsi="http://www.w3.org/2001/XMLSchema-instance" xsi:noNamespaceSchemaLocation="http://sumo.dlr.de/xsd/routes_file.xsd">
    <vehicle id="0" depart="0.00">
        <route edges="-181526861#2 181526861#2 210304100#3 210304100#4 210304100#5 210304100#6 456458233#0 456458233#1 456458233#2 456458233#3 456458233#4 456458233#5 456458233#6 456458233#7 380240716#0 380240716#1 380240716#2 380240716#3 380240716#4 380240716#5 380240716#6 380240716#7 380240716#8 157934984#3 157934984#4"/>
    </vehicle>
    <vehicle id="1" depart="1.00">
        <route edges="380240716#6 463301832#1 463301832#2 463303145 463299695#0 210304183#4 210304183#5 210304100#1 210304100#2 210304100#3 210304100#4 210304100#5 210304100#6 456458234#0 382662228#4 382662228#5 382662228#6 382662228#7 -382662228#7"/>
    </vehicle>
    <vehicle id="3" depart="3.00">
        <route edges="463303145 463299695#0 210304183#4 210304183#5 210304100#1 210304100#2 210304100#3 210304100#4 210304100#5 210304100#6 456458233#0 456458233#1 456458233#2 456458233#3 456458233#4 456458233#5 456458233#6 456458233#7 380240716#0 380240716#1 380240716#2 380240716#3 380240716#4 380240716#5 380240716#6 380240716#7 380240716#8 157934984#3 157934984#4"/>
    </vehicle>
    <vehicle id="5" depart="5.00">
        <route edges="467203510#0 -467203510#0 380240716#4 380240716#5 380240716#6 463301832#1 71881371#1 71881371#2 71881371#3 71881371#4 71881371#5 71881371#6 71881371#7 71881371#8 71881371#9 71881371#10 456458233#6 456458233#7 -5003754#2 -5003754#1 -5003754#0 4318811#1 4318811#2 4318811#3 4318811#4 36326642#0 36326642#1 36326642#2 36326642#3 36326642#4 -433012747#2 -433012747#1 -433012747#0 433012748#0 433012748#1 433012748#2 433012748#3 467488895"/>
    </vehicle>
    <vehicle id="6" depart="6.00">
        <route edges="-467485528#1 467485528#1 71881371#8 71881371#9 71881371#10 456458233#6 456458233#7 -5003754#2 -5003754#1 -5003754#0 4318811#1 4318811#2 4318811#3 -4318808#3 -4318808#2 -4318808#1 -4318808#0"/>
    </vehicle>
    <vehicle id="7" depart="7.00">
        <route edges="-466717921 157934985#1 -463518872#0 463301830 463303144#0 71881371#0 71881371#1 71881371#2 71881371#3 71881371#4 71881371#5 71881371#6 71881371#7 71881371#8 71881371#9 71881371#10 456458233#6 456458233#7 -5003754#2 -5003754#1 -5003754#0 4318811#1 4318811#2 4318811#3 -4318808#3 -4318808#2 16284720#3 467488893"/>
    </vehicle>
    <vehicle id="10" depart="10.00">
        <route edges="-466718972 466718969#1 466718969#2 157934978#2 470480593 463299695#0 210304183#4 210304183#5 210304100#1 210304100#2 210304100#3 210304100#4 210304100#5 210304100#6 456458233#0 456458233#1 456458233#2 456458233#3 456458233#4 -433012747#5 -433012747#4 -433012747#3 -433012747#2 -16284720#8 -16284720#7 -16284720#6 -16284720#5 -191539566"/>
    </vehicle>
    <vehicle id="11" depart="11.00">
        <route edges="161072040 161072041 470482419 463299695#0 210304183#4 210304183#5 210304100#1 210304100#2 210304100#3 210304100#4 210304100#5 210304100#6 456458233#0 456458233#1 456458233#2 456458233#3 456458233#4 456458233#5 456458233#6 456458233#7 380240716#0 380240716#1 380240716#2 380240716#3 380240716#4 380240716#5 380240716#6 380240716#7 380240716#8 -157934984#2 -157934984#1 -157934984#0 467452783#3 157934985#0 157934985#1 157934985#2 157934985#3 157934985#4 157934985#5 157934985#6 157934978#0 466718967"/>
    </vehicle>
    <vehicle id="13" depart="13.00">
        <route edges="-468417947 433012747#1 433012747#2 36326642#5 36326642#6 36326642#7 36326642#8 36326642#9 36326642#10 36326642#11 36326642#12 36326642#13 36326642#14 36326642#15 36326642#16 36326642#17 36326642#18 36326642#19 380240519#3 380240519#4 380240519#5 -382662228#6 387347114#3 387347114#4"/>
    </vehicle>
    <vehicle id="14" depart="14.00">
        <route edges="387347114#0 36326642#19 380240519#3 380240519#4 380240519#5 -382662228#6 387347114#3 456458153#1 456458153#2 456458233#0 456458233#1 456458233#2 456458233#3 456458233#4 456458233#5 456458233#6 456458233#7 380240716#0 380240716#1 380240716#2 380240716#3 380240716#4 380240716#5 380240716#6 380240716#7 380240716#8 380240716#9"/>
    </vehicle>
    <vehicle id="15" depart="15.00">
        <route edges="-382662228#7 -382662228#6 387347114#3 456458153#1 456458153#2 456458233#0 456458233#1 456458233#2 456458233#3 456458233#4 -433012747#5 -433012747#4 -433012747#3 -433012747#2 -433012747#1 -433012747#0 433012748#0"/>
    </vehicle>
    <vehicle id="19" depart="19.00">
        <route edges="-181526861#1 181526861#1 181526861#2 210304100#3 210304100#4 210304100#5 210304100#6 456458234#0 382662228#4 382662228#5 382662228#6 382662228#7 382662228#8"/>
    </vehicle>
    <vehicle id="21" depart="21.00">
        <route edges="433012747#3 433012747#4 433012747#5 456458233#5 456458233#6 456458233#7 380240716#0 380240716#1 380240716#2 380240716#3 380240716#4 380240716#5 380240716#6 380240716#7 380240716#8 380240716#9"/>
    </vehicle>
    <vehicle id="22" depart="22.00">
        <route edges="387347114#0 36326642#19 380240519#3 380240519#4 380240519#5 -382662228#6 387347114#3 456458153#1 456458153#2 456458233#0 456458233#1 456458233#2 456458233#3 456458233#4 -433012747#5 -433012747#4 -433012747#3 -433012747#2 -16284720#8 -16284720#7 -16284720#6 -433012750 433012749#0 -191540422"/>
    </vehicle>
    <vehicle id="23" depart="23.00">
        <route edges="81109498 -81109498 210304183#5 210304100#1 210304100#2 210304100#3 442236421#0 467485536"/>
    </vehicle>
    <vehicle id="25" depart="25.00">
        <route edges="-16284720#2 16284720#2 16284720#3 16284720#4 16284720#5 16284720#6 16284720#7 16284720#8 433012747#2 36326642#5 36326642#6 36326642#7 36326642#8 36326642#9 36326642#10 36326642#11 36326642#12 36326642#13 36326642#14 36326642#15 36326642#16 36326642#17 36326642#18 36326642#19 380240519#3 380240519#4 380240519#5 382662228#7 382662228#8 382662228#9 382662228#10 382662228#11 -382662228#11"/>
    </vehicle>
    <vehicle id="26" depart="26.00">
        <route edges="380240519#0 380240519#1 380240519#2 380240519#3 380240519#4 380240519#5 -382662228#6 -382662228#5 -382662228#4 456458234#1 456458234#2 456458234#3 36326642#17 387347115#4"/>
    </vehicle>
    <vehicle id="28" depart="28.00">
        <route edges="433012747#4 -433012747#4 -433012747#3 36326642#5 36326642#6 191541063"/>
    </vehicle>
    <vehicle id="31" depart="31.00">
        <route edges="387347114#0 36326642#19 380240519#3 380240519#4 380240519#5 382662228#7 382662228#8 382662228#9 382662228#10 382662228#11 -382662228#11"/>
    </vehicle>
    <vehicle id="34" depart="34.00">
        <route edges="380240716#0 380240716#1 380240716#2 380240716#3 380240716#4 380240716#5 380240716#6 463301832#1 71881371#1 71881371#2 71881371#3 71881371#4 71881371#5 71881371#6 71881371#7 71881371#8 71881371#9 71881371#10 456458233#6 456458233#7"/>
    </vehicle>
    <vehicle id="36" depart="36.00">
        <route edges="-191542141 36326642#10 36326642#11 36326642#12 36326642#13 36326642#14 36326642#15 36326642#16 36326642#17 36326642#18 36326642#19 380240519#3 380240519#4 380240519#5 -382662228#6 387347114#3 456458153#1 456458153#2 456458233#0 456458233#1 456458233#2 456458233#3 456458233#4 456458233#5 456458233#6 456458233#7 380240716#0 380240716#1 380240716#2 380240716#3 380240716#4 380240716#5 380240716#6 463301832#1 71881371#1"/>
    </vehicle>
    <vehicle id="42" depart="42.00">
        <route edges="-382662228#1 -5003754#1 -5003754#0 4318811#1 4318811#2 4318811#3 -4318808#3 -4318808#2 16284720#3 467488893"/>
    </vehicle>
    <vehicle id="43" depart="43.00">
        <route edges="425049540#0 425049540#1 425049540#2 425049540#3 4318811#2 4318811#3 4318811#4 36326642#0 36326642#1 36326642#2 36326642#3 36326642#4 36326642#5 36326642#6 36326642#7 36326642#8 36326642#9 36326642#10 36326642#11 36326642#12 36326642#13 36326642#14 36326642#15 36326642#16 36326642#17 36326642#18 36326642#19 380240519#3 380240519#4 380240519#5 -382662228#6 -382662228#5 -382662228#4 -382662228#3 -382662228#2"/>
    </vehicle>
    <vehicle id="45" depart="45.00">
        <route edges="382662228#11 -382662228#11 -382662228#10 -382662228#9 -382662228#8 -382662228#7 -382662228#6 387347114#3 387347114#4"/>
    </vehicle>
    <vehicle id="47" depart="47.00">
        <route edges="387347114#0 36326642#19 380240519#3 380240519#4 380240519#5 382662228#7 382662228#8 382662228#9 382662228#10 382662228#11 -382662228#11"/>
    </vehicle>
    <vehicle id="48" depart="48.00">
        <route edges="-16284720#8 -16284720#7 -16284720#6 -433012750 433012749#0 433012749#1"/>
    </vehicle>
    <vehicle id="50" depart="50.00">
        <route edges="157934980#1 157934985#7 210304183#2 210304183#3 463299695#1 210304179#2 210304104#1 210304104#2 210304104#3"/>
    </vehicle>
    <vehicle id="51" depart="51.00">
        <route edges="157934982 38682897#2 38682897#3 38682897#4 38682897#5 210304098 210304100#0 210304100#1 210304100#2 210304100#3 210304100#4 210304100#5 210304100#6 456458233#0 456458233#1 456458233#2 456458233#3 456458233#4 456458233#5 456458233#6 456458233#7 456458233#8 456458233#9"/>
    </vehicle>
    <vehicle id="54" depart="54.00">
        <route edges="425049540#2 425049540#3 4318811#2 4318811#3 4318811#4 36326642#0 36326642#1 36326642#2 36326642#3 36326642#4 36326642#5 36326642#6 36326642#7 36326642#8 36326642#9 36326642#10 36326642#11 36326642#12 36326642#13 36326642#14 36326642#15 36326642#16 36326642#17 36326642#18 36326642#19 380240519#3 380240519#4 380240519#5 382662228#7 382662228#8 382662228#9 382662228#10 382662228#11 382662228#12"/>
    </vehicle>
    <vehicle id="57" depart="57.00">
        <route edges="402324831 -157934984#3 -157934984#2 -157934984#1 -157934984#0 467452783#3 467452783#4 467452783#5 463303146 463303145 463299695#0 210304183#4 210304183#5 210304100#1 210304100#2 210304100#3 210304100#4 210304100#5 210304100#6 456458234#0 382662228#4 382662228#5 382662228#6 382662228#7 382662228#8 382662228#9 382662228#10 382662228#11 -382662228#11"/>
    </vehicle>
    <vehicle id="59" depart="59.00">
        <route edges="-382662228#12 -382662228#11 -382662228#10 -382662228#9 -382662228#8 -382662228#7 -382662228#6 387347114#3 456458153#1 456458153#2 456458233#0 456458233#1 456458233#2 456458233#3 456458233#4 -433012747#5 -433012747#4 -433012747#3 -433012747#2 -433012747#1 -433012747#0 -4297761"/>
    </vehicle>
    <vehicle id="60" depart="60.00">
        <route edges="461984370#0 461984370#1 -5003754#0 4318811#1 4318811#2 4318811#3 4318811#4 36326642#0 36326642#1 36326642#2 36326642#3 36326642#4 433012747#3 433012747#4 -382662228#1"/>
    </vehicle>
    <vehicle id="61" depart="61.00">
        <route edges="191542381 36326666#6 36326666#7 456458234#3 36326642#17 36326642#18 36326642#19 380240519#3 380240519#4 380240519#5 -382662228#6 387347114#3 456458153#1 456458153#2 456458233#0 456458233#1 456458233#2 456458233#3 456458233#4 -433012747#5 -433012747#4 -433012747#3 36326642#5 36326642#6 36326642#7 36326642#8 36326642#9 191542141"/>
    </vehicle>
    <vehicle id="65" depart="65.00">
        <route edges="467203514#0 467203514#1 380240716#6 463301832#1 71881371#1 71881371#2 71881371#3 71881371#4 71881371#5 71881371#6 71881371#7 71881371#8 71881371#9 71881371#10 456458233#6 456458233#7 -5003754#2 -5003754#1 -5003754#0 4318811#1 4318811#2 4318811#3 4318811#4 36326642#0 36326642#1 36326642#2 36326642#3 36326642#4 -433012747#2 -433012747#1 -433012747#0 433012748#0 433012748#1 -191541063"/>
    </vehicle>
    <vehicle id="66" depart="66.00">
        <route edges="456458234#2 456458234#3 36326642#17 36326642#18 36326642#19 380240519#3 380240519#4 380240519#5 380240519#6 456458152#0 456458152#1 456458152#2 456458152#3 456458152#4 210304179#0 210304179#1 210304179#2"/>
    </vehicle>
    <vehicle id="67" depart="67.00">
        <route edges="4516015#5 4516015#6 4516015#7 -463518872#1 157934985#2 157934985#3 157934985#4 157934985#5 157934985#6 157934985#7 210304183#2 210304183#3 210304183#4 210304183#5 210304100#1 210304100#2 210304100#3 210304100#4 210304100#5 210304100#6 456458234#0 382662228#4 382662228#5 382662228#6 382662228#7 382662228#8 382662228#9 382662228#10 382662228#11"/>
    </vehicle>
    <vehicle id="68" depart="68.00">
        <route edges="425049540#0 425049540#1 425049540#2 425049540#3 4318811#2 4318811#3 4318811#4 36326642#0 36326642#1 36326642#2 36326642#3 36326642#4 36326642#5 36326642#6 36326642#7 36326642#8 477974105"/>
    </vehicle>
    <vehicle id="71" depart="71.00">
        <route edges="210304183#1 210304183#2 210304183#3 210304183#4 210304183#5 210304100#1 210304100#2 210304100#3 210304100#4 210304100#5 210304100#6 456458233#0 456458233#1 456458233#2 456458233#3 456458233#4 -433012747#5 -433012747#4 36326666#3 36326666#4 36326666#5 -191542381"/>
    </vehicle>
    <vehicle id="73" depart="73.00">
        <route edges="387347114#0 36326642#19 380240519#3 380240519#4 380240519#5 -382662228#6 387347114#3 456458153#1 456458153#2 456458233#0 456458233#1 456458233#2 456458233#3 456458233#4 456458233#5 456458233#6 456458233#7 380240716#0 380240716#1 380240716#2 380240716#3 380240716#4 380240716#5 380240716#6 380240716#7 380240716#8 -157934984#2 -157934984#1 -157934984#0 467452783#3 157934985#0 157934985#1 463518872#1 308260350#0 308260350#1 308260351"/>
    </vehicle>
    <vehicle id="74" depart="74.00">
        <route edges="4318811#1 4318811#2 4318811#3 4318811#4 4318811#5 4318811#0 5003754#0 5003754#1 5003754#2 380240716#0 380240716#1 380240716#2 380240716#3 380240716#4 380240716#5 380240716#6 463301832#1 463301832#2 -463303146 463303144#0 463303144#1"/>
    </vehicle>
    <vehicle id="76" depart="76.00">
        <route edges="16284720#3 -16284720#3 4318808#2 4318808#3 4318811#4 4318811#5 4318811#0 5003754#0 5003754#1 5003754#2 380240716#0 380240716#1 380240716#2 380240716#3 380240716#4 380240716#5 380240716#6 380240716#7 380240716#8 157934984#3 157934984#4"/>
    </vehicle>
    <vehicle id="78" depart="78.00">
        <route edges="210304100#3 210304100#4 210304100#5 210304100#6 456458234#0 382662228#4 382662228#5 382662228#6 382662228#7 382662228#8 382662228#9 382662228#10 382662228#11 382662228#12"/>
    </vehicle>
    <vehicle id="83" depart="83.00">
        <route edges="461984370#0 461984370#1 -5003754#0 4318811#1 4318811#2 4318811#3 4318811#4 36326642#0 36326642#1 36326642#2 36326642#3 36326642#4 36326642#5 36326642#6 36326642#7 36326642#8 36326642#9 36326642#10 36326642#11 36326642#12 36326642#13 36326642#14 36326642#15 36326642#16 36326642#17 36326642#18 36326642#19 380240519#3 380240519#4 380240519#5 382662228#7 382662228#8 382662228#9 382662228#10 382662228#11 382662228#12"/>
    </vehicle>
    <vehicle id="85" depart="85.00">
        <route edges="-16284720#8 16284720#8 433012747#2 36326642#5 36326642#6 36326642#7 36326642#8 36326642#9 36326642#10 36326642#11 36326642#12 36326642#13 36326642#14 36326642#15 36326642#16 36326642#17 36326642#18 36326642#19 380240519#3 380240519#4 380240519#5 -382662228#6 -382662228#5 387347115#3"/>
    </vehicle>
    <vehicle id="86" depart="86.00">
        <route edges="467203512 -467203512 380240716#5 380240716#6 463301832#1 463301832#2 463303145 463299695#0 210304183#4 210304183#5 210304100#1 210304100#2 210304100#3 210304100#4 210304100#5 210304100#6 456458233#0 456458233#1 456458233#2 456458233#3 456458233#4 -433012747#5 -382662228#1"/>
    </vehicle>
    <vehicle id="87" depart="87.00">
        <route edges="191542146 36326666#7 456458234#3 36326642#17 36326642#18 36326642#19 380240519#3 380240519#4 380240519#5 -382662228#6 387347114#3 456458153#1 456458153#2 456458233#0 456458233#1 456458233#2 456458233#3 456458233#4 -433012747#5 382662228#2"/>
    </vehicle>
    <vehicle id="88" depart="88.00">
        <route edges="380240519#0 380240519#1 380240519#2 380240519#3 380240519#4 380240519#5 -382662228#6 387347114#3 456458153#1 456458153#2 456458233#0 456458233#1 456458233#2 456458233#3 456458233#4 456458233#5 456458233#6 456458233#7 380240716#0 380240716#1 380240716#2 380240716#3 380240716#4 380240716#5 380240716#6 380240716#7 380240716#8 157934984#3 -157934984#3"/>
    </vehicle>
    <vehicle id="89" depart="89.00">
        <route edges="-382662228#12 -382662228#11 -382662228#10 -382662228#9 -382662228#8 -382662228#7 -382662228#6 387347114#3 456458153#1 456458153#2 456458233#0 456458233#1 456458233#2 456458233#3 456458233#4 456458233#5 456458233#6 302696298#0 468419437"/>
    </vehicle>
    <vehicle id="90" depart="90.00">
        <route edges="433012747#4 -433012747#4 -433012747#3 36326642#5 36326642#6 36326642#7 36326642#8 36326642#9 36326642#10 36326642#11 36326642#12 36326642#13 36326642#14 36326642#15 36326642#16 36326642#17 36326642#18 36326642#19 380240519#3 380240519#4 380240519#5 380240519#6 456458152#0 456458152#1 456458152#2 456458152#3 456458152#4 210304179#0 210304179#1 463299695#2 463299695#3"/>
    </vehicle>
    <vehicle id="92" depart="92.00">
        <route edges="425049540#2 425049540#3 4318811#2 4318811#3 4318811#4 4318811#5 4318811#0 5003754#0 5003754#1 5003754#2 380240716#0 380240716#1 380240716#2 380240716#3 380240716#4 380240716#5 380240716#6 380240716#7 380240716#8 -157934984#2 -157934984#1 -157934984#0 467452783#3 157934985#0 157934985#1 463518872#1 -463518872#1"/>
    </vehicle>
    <vehicle id="95" depart="95.00">
        <route edges="278822219#0 278822219#1"/>
    </vehicle>
    <vehicle id="98" depart="98.00">
        <route edges="38682897#4 38682897#5 210304098 210304100#0 210304100#1 210304100#2 210304100#3 210304100#4 210304100#5 210304100#6 456458233#0 456458233#1 456458233#2 456458233#3 456458233#4 -433012747#5 -433012747#4 433012747#4"/>
    </vehicle>
    <vehicle id="102" depart="102.00">
        <route edges="467452783#4 466717919 -466717919"/>
    </vehicle>
    <vehicle id="111" depart="111.00">
        <route edges="380240519#0 380240519#1 380240519#2 380240519#3 380240519#4 380240519#5 -382662228#6 387347114#3 456458153#1 456458153#2 456458233#0 456458233#1 456458233#2 456458233#3 456458233#4 456458233#5 456458233#6 456458233#7 380240716#0 380240716#1 380240716#2 380240716#3 380240716#4 380240716#5 380240716#6 380240716#7 380240716#8 -157934984#2 -157934984#1 -157934984#0 467452783#3 157934985#0 157934985#1 463518872#1 308260350#0 308260350#1 308260350#2"/>
    </vehicle>
    <vehicle id="112" depart="112.00">
        <route edges="380240519#0 380240519#1 380240519#2 380240519#3 380240519#4 380240519#5 -382662228#6 387347114#3 456458153#1 456458153#2 456458233#0 456458233#1 456458233#2 456458233#3 456458233#4 456458233#5 456458233#6 456458233#7 380240716#0 380240716#1 380240716#2 380240716#3 380240716#4 380240716#5 380240716#6 380240716#7 380240716#8 157934984#3 157934984#4"/>
    </vehicle>
    <vehicle id="114" depart="114.00">
        <route edges="-382662228#12 -382662228#11 -382662228#10 -382662228#9 -382662228#8 -382662228#7 -382662228#6 387347114#3 456458153#1 456458153#2 456458233#0 456458233#1 456458233#2 456458233#3 456458233#4 456458233#5 456458233#6 456458233#7 380240716#0 380240716#1 380240716#2 380240716#3 380240716#4 380240716#5 380240716#6"/>
    </vehicle>
    <vehicle id="115" depart="115.00">
        <route edges="382662228#1 433012747#5 456458233#5 456458233#6 456458233#7 380240716#0 380240716#1 380240716#2 380240716#3 380240716#4 380240716#5 380240716#6 380240716#7 380240716#8 -157934984#2 -157934984#1 -157934984#0 467452783#3 157934985#0 157934985#1 157934985#2 -463518873 470482605#3"/>
    </vehicle>
    <vehicle id="116" depart="116.00">
        <route edges="38682897#5 210304098 210304100#0 210304100#1 210304100#2 -181526861#2 -181526861#1 467485530#0 -467485531"/>
    </vehicle>
    <vehicle id="117" depart="117.00">
        <route edges="161072041 470482419 463299695#0 210304183#4 210304183#5 210304100#1 210304100#2 210304100#3 210304100#4 210304100#5 210304100#6 456458234#0 456458234#1 456458234#2 456458234#3 36326642#17 36326642#18 36326642#19 380240519#3"/>
    </vehicle>
    <vehicle id="119" depart="119.00">
        <route edges="456458233#2 456458233#3 456458233#4 -433012747#5 -433012747#4 -433012747#3 -433012747#2 -16284720#8 -16284720#7 -16284720#6 16284720#6"/>
    </vehicle>
    <vehicle id="120" depart="120.00">
        <route edges="380240716#8 -157934984#2 -157934984#1 -157934984#0 467452783#3 467452783#4 467452783#5 463303144#0 71881371#0 71881371#1 71881371#2 71881371#3 71881371#4 71881371#5 71881371#6 71881371#7 71881371#8 71881371#9 71881371#10 456458233#6 456458233#7 -5003754#2 -5003754#1 -461984370#1 59276962#0 59276962#1 191527968"/>
    </vehicle>
    <vehicle id="122" depart="122.00">
        <route edges="157934986 157934985#6 157934978#0 157934978#1 157934978#2 470482605#0 470482605#1 470482605#2 470482605#3 463301830 463303144#0 463303144#1 380240716#8 380240716#9"/>
    </vehicle>
    <vehicle id="123" depart="123.00">
        <route edges="463301832#1 71881371#1 71881371#2 71881371#3 71881371#4 71881371#5 71881371#6 71881371#7 71881371#8 71881371#9 71881371#10 456458233#6 456458233#7 -5003754#2 -5003754#1 -5003754#0 4318811#1 4318811#2 4318811#3 -4318808#3 -4318808#2 4318808#2"/>
    </vehicle>
    <vehicle id="125" depart="125.00">
        <route edges="-16284720#2 16284720#2 16284720#3 16284720#4 16284720#5 16284720#6 16284720#7 16284720#8 433012747#2 36326642#5 36326642#6 36326642#7 36326642#8 36326642#9 36326642#10 36326642#11 36326642#12 36326642#13 36326642#14 36326642#15 36326642#16 36326642#17 36326642#18 36326642#19 380240519#3 380240519#4 380240519#5 380240519#6 456458152#0 456458152#1 456458152#2 456458152#3 456458152#4 456458152#5 210304097 210304104#0 210304104#1 194291014#0 194291015"/>
    </vehicle>
    <vehicle id="127" depart="127.00">
        <route edges="467485530#0 -467485530#0 181526861#1 181526861#2 210304100#3 210304100#4 210304100#5 210304100#6 456458234#0 382662228#4 382662228#5 382662228#6 380240519#6 456458152#0 456458152#1 456458152#2 456458152#3 456458152#4 456458152#5 210304097 210304104#0 210304104#1 194291014#0 194291014#1 194291014#2"/>
    </vehicle>
    <vehicle id="129" depart="129.00">
        <route edges="71881372#2 4516015#6 4516015#7 4516015#8 467452783#3 467452783#4 467452783#5 463303144#0 71881371#0 71881371#1 71881371#2 71881371#3 71881371#4 71881371#5 71881371#6 71881371#7 71881371#8 71881371#9 71881371#10 456458233#6 456458233#7 -5003754#2 -5003754#1 -5003754#0 4318811#1 4318811#2 4318811#3 4318811#4 36326642#0"/>
    </vehicle>
    <vehicle id="132" depart="132.00">
        <route edges="380240519#0 380240519#1 380240519#2 380240519#3 380240519#4 380240519#5 -382662228#6 387347114#3 456458153#1 456458153#2 456458233#0 456458233#1 456458233#2 456458233#3 456458233#4 -433012747#5 -433012747#4 -433012747#3 36326642#5 36326642#6 36326642#7 36326642#8 36326642#9 36326642#10 36326642#11 -191542145"/>
    </vehicle>
    <vehicle id="133" depart="133.00">
        <route edges="-464583139 36326642#8 36326642#9 36326642#10 36326642#11 36326642#12 36326642#13 36326642#14 36326642#15 36326642#16 36326642#17 36326642#18 36326642#19 380240519#3 380240519#4 380240519#5 -382662228#6 387347114#3 456458153#1 456458153#2 456458233#0 456458233#1 456458233#2 456458233#3 456458233#4 456458233#5 456458233#6 456458233#7 380240716#0 380240716#1 380240716#2 380240716#3 380240716#4 380240716#5 380240716#6 380240716#7 380240716#8 -157934984#2 -157934984#1 -157934984#0 467452783#3 157934985#0 157934985#1 157934985#2 157934985#3 157934985#4 -463518874 463518874"/>
    </vehicle>
    <vehicle id="138" depart="138.00">
        <route edges="467452783#3 467452783#4 467452783#5 463303146 463303145 463299695#0 463299695#1 210304179#2 210304104#1 210304104#2 210304104#3 194291013#0 194291013#1 -194291023"/>
    </vehicle>
    <vehicle id="141" depart="141.00">
        <route edges="-468419437 302696298#1 302696298#2 467485528#1 71881371#8 71881371#9 71881371#10 456458233#6 456458233#7 -5003754#2 -5003754#1 -5003754#0 4318811#1 4318811#2 4318811#3 4318811#4 36326642#0 36326642#1 36326642#2 36326642#3 36326642#4 36326642#5 36326642#6 36326642#7 36326642#8 36326642#9 36326642#10 36326642#11 36326642#12 36326664#0 36326664#1 36326664#2 191541062#0 191541062#1"/>
    </vehicle>
    <vehicle id="142" depart="142.00">
        <route edges="210304100#4 210304100#5 210304100#6 456458234#0 382662228#4 382662228#5 382662228#6 382662228#7 382662228#8 382662228#9 382662228#10 382662228#11"/>
    </vehicle>
    <vehicle id="148" depart="148.00">
        <route edges="210304183#4 210304183#5 210304100#1 210304100#2 210304100#3 210304100#4 210304100#5 210304100#6 456458233#0 456458233#1 456458233#2 456458233#3 456458233#4 456458233#5 456458233#6 456458233#7 380240716#0 380240716#1 380240716#2 380240716#3 380240716#4 380240716#5 380240716#6 380240716#7 380240716#8 -157934984#2 -157934984#1 -157934984#0 467452783#3 157934985#0 157934985#1 -463518872#0 463518872#0"/>
    </vehicle>
    <vehicle id="150" depart="150.00">
        <route edges="4318808#0 4318808#1 16284720#3 16284720#4 16284720#5 16284720#6 16284720#7 16284720#8 433012747#2 36326642#5 36326642#6 36326642#7 36326642#8 36326642#9 36326642#10 36326642#11 36326642#12 36326642#13 36326642#14 36326642#15 36326642#16 36326642#17 36326642#18 36326642#19 380240519#3 380240519#4 380240519#5 -382662228#6 387347114#3 387347114#4"/>
    </vehicle>
    <vehicle id="151" depart="151.00">
        <route edges="382662228#8 -382662228#8 -382662228#7 -382662228#6 387347114#3 456458153#1 456458153#2 456458233#0 456458233#1 456458233#2 456458233#3 456458233#4 456458233#5 456458233#6 456458233#7 -5003754#2 -382662228#0"/>
    </vehicle>
    <vehicle id="153" depart="153.00">
        <route edges="470482419 463299695#0 210304183#4 210304183#5 210304100#1 210304100#2 210304100#3 210304100#4 210304100#5 210304100#6 456458233#0 456458233#1 456458233#2 456458233#3 456458233#4 456458233#5 456458233#6 456458233#7 -5003754#2 -382662228#0"/>
    </vehicle>
    <vehicle id="159" depart="159.00">
        <route edges="387347114#0 36326642#19 380240519#3 380240519#4 380240519#5 -382662228#6 387347114#3 456458153#1 456458153#2 456458233#0 456458233#1 456458233#2 456458233#3 456458233#4 456458233#5 456458233#6 456458233#7 -5003754#2 -5003754#1 -5003754#0 4318811#1 4318811#2 59276963#0 59276963#1 59276963#2 59276963#3"/>
    </vehicle>
    <vehicle id="162" depart="162.00">
        <route edges="380240519#0 380240519#1 380240519#2 380240519#3 380240519#4 380240519#5 -382662228#6 387347114#3 456458153#1 456458153#2 456458233#0 456458233#1 456458233#2 456458233#3 456458233#4 -433012747#5 -433012747#4 -433012747#3 -433012747#2 -16284720#8 -16284720#7 -16284720#6 -433012750 433012749#0 -191540422"/>
    </vehicle>
    <vehicle id="164" depart="164.00">
        <route edges="4516015#8 467452783#3 467452783#4 467452783#5 463303144#0 71881371#0 71881371#1 71881371#2 71881371#3 71881371#4 71881371#5 71881371#6 71881371#7 71881371#8 71881371#9 71881371#10 456458233#6 456458233#7 456458233#8 456458233#9"/>
    </vehicle>
    <vehicle id="166" depart="166.00">
        <route edges="387347114#0 36326642#19 380240519#3 380240519#4 380240519#5 380240519#6 456458152#0 456458152#1 456458152#2 456458152#3 456458152#4 456458152#5 210304097"/>
    </vehicle>
    <vehicle id="168" depart="168.00">
        <route edges="466718969#1 466718969#2 157934978#2 470480593 463299695#0 210304183#4 210304183#5 210304100#1 210304100#2 210304100#3 210304100#4 210304100#5 210304100#6 456458233#0 456458233#1 456458233#2 456458233#3 456458233#4 456458233#5 456458233#6 456458233#7 -5003754#2 -382662228#0"/>
    </vehicle>
    <vehicle id="170" depart="170.00">
        <route edges="387347115#3 36326642#18 36326642#19 380240519#3 380240519#4 380240519#5 382662228#7 382662228#8 -382662228#8"/>
    </vehicle>
    <vehicle id="172" depart="172.00">
        <route edges="380240519#0 380240519#1 380240519#2 380240519#3 380240519#4 380240519#5 -382662228#6 387347114#3 456458153#1 456458153#2 456458233#0 456458233#1 456458233#2 456458233#3 456458233#4 456458233#5 456458233#6 456458233#7 380240716#0 380240716#1 380240716#2 380240716#3 380240716#4 380240716#5 380240716#6 463301832#1 463301832#2 463303145 463299695#0 210304183#4 210304183#5 210304100#1 210304100#2 -181526861#2 467485533"/>
    </vehicle>
    <vehicle id="177" depart="177.00">
        <route edges="-463518873 463518873 157934985#3 157934985#4 -463518874 463518874"/>
    </vehicle>
    <vehicle id="180" depart="180.00">
        <route edges="461984370#0 461984370#1 -5003754#0 4318811#1 4318811#2 4318811#3 4318811#4 36326642#0 36326642#1 36326642#2 36326642#3 36326642#4 36326642#5 36326642#6 36326642#7 36326642#8 36326642#9 36326642#10 36326642#11 36326642#12 36326642#13 36326642#14 36326642#15 36326642#16 36326642#17 36326642#18 36326642#19 380240519#3 380240519#4 380240519#5 -382662228#6 -382662228#5 387347115#3"/>
    </vehicle>
    <vehicle id="183" depart="183.00">