<?xml version="1.0"?>
<!-- generated on 2018-05-30 11:31:22.805000 by $Id: randomTrips.py 19495 2015-12-02 12:36:28Z behrisch $
  options: -n amirkabir.net.xml -r amirkabir.rou.xml -e 200 -l
-->
<trips>
    <trip id="0" depart="0.00" from="-181526861#2" to="157934984#4" />
    <trip id="1" depart="1.00" from="380240716#6" to="-382662228#7" />
    <trip id="2" depart="2.00" from="456458233#6" to="278822219#1" />
    <trip id="3" depart="3.00" from="463303145" to="157934984#4" />
    <trip id="4" depart="4.00" from="194291018" to="210304097" />
    <trip id="5" depart="5.00" from="467203510#0" to="467488895" />
    <trip id="6" depart="6.00" from="-467485528#1" to="-4318808#0" />
    <trip id="7" depart="7.00" from="-466717921" to="467488893" />
    <trip id="8" depart="8.00" from="4318811#1" to="157934980#0" />
    <trip id="9" depart="9.00" from="-16284720#6" to="278822219#1" />
    <trip id="10" depart="10.00" from="-466718972" to="-191539566" />
    <trip id="11" depart="11.00" from="161072040" to="466718967" />
    <trip id="12" depart="12.00" from="-466717928" to="278822219#1" />
    <trip id="13" depart="13.00" from="-468417947" to="387347114#4" />
    <trip id="14" depart="14.00" from="387347114#0" to="380240716#9" />
    <trip id="15" depart="15.00" from="-382662228#7" to="433012748#0" />
    <trip id="16" depart="16.00" from="-157934984#4" to="278822219#1" />
    <trip id="17" depart="17.00" from="467452783#0" to="278822219#1" />
    <trip id="18" depart="18.00" from="-382662228#12" to="210304183#1" />
    <trip id="19" depart="19.00" from="-181526861#1" to="382662228#8" />
    <trip id="20" depart="20.00" from="387347116" to="278822219#1" />
    <trip id="21" depart="21.00" from="433012747#3" to="380240716#9" />
    <trip id="22" depart="22.00" from="387347114#0" to="-191540422" />
    <trip id="23" depart="23.00" from="81109498" to="467485536" />
    <trip id="24" depart="24.00" from="194291023" to="157934985#7" />
    <trip id="25" depart="25.00" from="-16284720#2" to="-382662228#11" />
    <trip id="26" depart="26.00" from="380240519#0" to="387347115#4" />
    <trip id="27" depart="27.00" from="194291013#0" to="-454001586#0" />
    <trip id="28" depart="28.00" from="433012747#4" to="191541063" />
    <trip id="29" depart="29.00" from="425049540#0" to="278822219#1" />
    <trip id="30" depart="30.00" from="191536516" to="278822219#1" />
    <trip id="31" depart="31.00" from="387347114#0" to="-382662228#11" />
    <trip id="32" depart="32.00" from="387347116" to="-191542145" />
    <trip id="33" depart="33.00" from="387347114#4" to="425049540#2" />
    <trip id="34" depart="34.00" from="380240716#0" to="456458233#7" />
    <trip id="35" depart="35.00" from="467485528#1" to="278822219#1" />
    <trip id="36" depart="36.00" from="-191542141" to="71881371#1" />
    <trip id="37" depart="37.00" from="-477974105" to="278822219#1" />
    <trip id="38" depart="38.00" from="387347114#4" to="387347115#0" />
    <trip id="39" depart="39.00" from="382662228#0" to="278822219#1" />
    <trip id="40" depart="40.00" from="-488607354" to="387347115#4" />
    <trip id="41" depart="41.00" from="210304179#1" to="278822219#1" />
    <trip id="42" depart="42.00" from="-382662228#1" to="467488893" />
    <trip id="43" depart="43.00" from="425049540#0" to="-382662228#2" />
    <trip id="44" depart="44.00" from="4392714#0" to="210304100#3" />
    <trip id="45" depart="45.00" from="382662228#11" to="387347114#4" />
    <trip id="46" depart="46.00" from="402324831" to="278822219#1" />
    <trip id="47" depart="47.00" from="387347114#0" to="-382662228#11" />
    <trip id="48" depart="48.00" from="-16284720#8" to="433012749#1" />
    <trip id="49" depart="49.00" from="467485528#0" to="278822219#1" />
    <trip id="50" depart="50.00" from="157934980#1" to="210304104#3" />
    <trip id="51" depart="51.00" from="157934982" to="456458233#9" />
    <trip id="52" depart="52.00" from="380240716#0" to="278822219#1" />
    <trip id="53" depart="53.00" from="35103852" to="36326666#1" />
    <trip id="54" depart="54.00" from="425049540#2" to="382662228#12" />
    <trip id="55" depart="55.00" from="-433012747#3" to="278822219#1" />
    <trip id="56" depart="56.00" from="380240716#8" to="278822219#1" />
    <trip id="57" depart="57.00" from="402324831" to="-382662228#11" />
    <trip id="58" depart="58.00" from="-467488894" to="278822219#1" />
    <trip id="59" depart="59.00" from="-382662228#12" to="-4297761" />
    <trip id="60" depart="60.00" from="461984370#0" to="-382662228#1" />
    <trip id="61" depart="61.00" from="191542381" to="191542141" />
    <trip id="62" depart="62.00" from="468419426" to="278822219#1" />
    <trip id="63" depart="63.00" from="382662228#2" to="278822219#1" />
    <trip id="64" depart="64.00" from="456458233#5" to="278822219#1" />
    <trip id="65" depart="65.00" from="467203514#0" to="-191541063" />
    <trip id="66" depart="66.00" from="456458234#2" to="210304179#2" />
    <trip id="67" depart="67.00" from="4516015#5" to="382662228#11" />
    <trip id="68" depart="68.00" from="425049540#0" to="477974105" />
    <trip id="69" depart="69.00" from="463301832#0" to="278822219#1" />
    <trip id="70" depart="70.00" from="-382662228#12" to="278822219#1" />
    <trip id="71" depart="71.00" from="210304183#1" to="-191542381" />
    <trip id="72" depart="72.00" from="210304179#2" to="191542141" />
    <trip id="73" depart="73.00" from="387347114#0" to="308260351" />
    <trip id="74" depart="74.00" from="4318811#1" to="463303144#1" />
    <trip id="75" depart="75.00" from="461984370#0" to="278822219#1" />
    <trip id="76" depart="76.00" from="16284720#3" to="157934984#4" />
    <trip id="77" depart="77.00" from="-433012747#1" to="210304183#1" />
    <trip id="78" depart="78.00" from="210304100#3" to="382662228#12" />
    <trip id="79" depart="79.00" from="-16284720#2" to="278822219#1" />
    <trip id="80" depart="80.00" from="191541383" to="278822219#1" />
    <trip id="81" depart="81.00" from="380240519#0" to="278822219#1" />
    <trip id="82" depart="82.00" from="485559470#2" to="466717930" />
    <trip id="83" depart="83.00" from="461984370#0" to="382662228#12" />
    <trip id="84" depart="84.00" from="4392714#0" to="380240716#9" />
    <trip id="85" depart="85.00" from="-16284720#8" to="387347115#3" />
    <trip id="86" depart="86.00" from="467203512" to="-382662228#1" />
    <trip id="87" depart="87.00" from="191542146" to="382662228#2" />
    <trip id="88" depart="88.00" from="380240519#0" to="-157934984#3" />
    <trip id="89" depart="89.00" from="-382662228#12" to="468419437" />
    <trip id="90" depart="90.00" from="433012747#4" to="463299695#3" />
    <trip id="91" depart="91.00" from="387347114#0" to="278822219#1" />
    <trip id="92" depart="92.00" from="425049540#2" to="-463518872#1" />
    <trip id="93" depart="93.00" from="463303144#0" to="278822219#1" />
    <trip id="94" depart="94.00" from="467485530#0" to="278822219#1" />
    <trip id="95" depart="95.00" from="278822219#0" to="278822219#1" />
    <trip id="96" depart="96.00" from="-467488894" to="278822219#1" />
    <trip id="97" depart="97.00" from="485559470#1" to="278822219#1" />
    <trip id="98" depart="98.00" from="38682897#4" to="433012747#4" />
    <trip id="99" depart="99.00" from="35103852" to="382662228#2" />
    <trip id="100" depart="100.00" from="-463518872#0" to="278822219#1" />
    <trip id="101" depart="101.00" from="-477652483#1" to="278822219#1" />
    <trip id="102" depart="102.00" from="467452783#4" to="-466717919" />
    <trip id="103" depart="103.00" from="470482605#2" to="278822219#1" />
    <trip id="104" depart="104.00" from="5003754#0" to="278822219#1" />
    <trip id="105" depart="105.00" from="210304179#2" to="4318811#5" />
    <trip id="106" depart="106.00" from="210304179#2" to="278822219#1" />
    <trip id="107" depart="107.00" from="380240716#0" to="278822219#1" />
    <trip id="108" depart="108.00" from="4392714#0" to="278822219#1" />
    <trip id="109" depart="109.00" from="387347116" to="477974105" />
    <trip id="110" depart="110.00" from="466717922" to="278822219#1" />
    <trip id="111" depart="111.00" from="380240519#0" to="308260350#2" />
    <trip id="112" depart="112.00" from="380240519#0" to="157934984#4" />
    <trip id="113" depart="113.00" from="4392714#0" to="468419436" />
    <trip id="114" depart="114.00" from="-382662228#12" to="380240716#6" />
    <trip id="115" depart="115.00" from="382662228#1" to="470482605#3" />
    <trip id="116" depart="116.00" from="38682897#5" to="-467485531" />
    <trip id="117" depart="117.00" from="161072041" to="380240519#3" />
    <trip id="118" depart="118.00" from="387347114#4" to="387347115#4" />
    <trip id="119" depart="119.00" from="456458233#2" to="16284720#6" />
    <trip id="120" depart="120.00" from="380240716#8" to="191527968" />
    <trip id="121" depart="121.00" from="16284720#0" to="71881372#2" />
    <trip id="122" depart="122.00" from="157934986" to="380240716#9" />
    <trip id="123" depart="123.00" from="463301832#1" to="4318808#2" />
    <trip id="124" depart="124.00" from="-464583134" to="278822219#1" />
    <trip id="125" depart="125.00" from="-16284720#2" to="194291015" />
    <trip id="126" depart="126.00" from="-382662228#12" to="278822219#1" />
    <trip id="127" depart="127.00" from="467485530#0" to="194291014#2" />
    <trip id="128" depart="128.00" from="161072166#1" to="278822219#1" />
    <trip id="129" depart="129.00" from="71881372#2" to="36326642#0" />
    <trip id="130" depart="130.00" from="387347114#4" to="380240716#9" />
    <trip id="131" depart="131.00" from="4392714#1" to="38682897#5" />
    <trip id="132" depart="132.00" from="380240519#0" to="-191542145" />
    <trip id="133" depart="133.00" from="-464583139" to="463518874" />
    <trip id="134" depart="134.00" from="-181526861#2" to="278822219#1" />
    <trip id="135" depart="135.00" from="38682897#1" to="278822219#1" />
    <trip id="136" depart="136.00" from="-467203510#0" to="278822219#1" />
    <trip id="137" depart="137.00" from="485559470#1" to="278822219#1" />
    <trip id="138" depart="138.00" from="467452783#3" to="-194291023" />
    <trip id="139" depart="139.00" from="191541061" to="278822219#1" />
    <trip id="140" depart="140.00" from="387347114#0" to="-490267998" />
    <trip id="141" depart="141.00" from="-468419437" to="191541062#1" />
    <trip id="142" depart="142.00" from="210304100#4" to="382662228#11" />
    <trip id="143" depart="143.00" from="387347114#0" to="278822219#1" />
    <trip id="144" depart="144.00" from="454001587" to="210304098" />
    <trip id="145" depart="145.00" from="380240519#0" to="278822219#1" />
    <trip id="146" depart="146.00" from="387347115#3" to="278822219#1" />
    <trip id="147" depart="147.00" from="456458152#2" to="278822219#1" />
    <trip id="148" depart="148.00" from="210304183#4" to="463518872#0" />
    <trip id="149" depart="149.00" from="194291023" to="382662228#11" />
    <trip id="150" depart="150.00" from="4318808#0" to="387347114#4" />
    <trip id="151" depart="151.00" from="382662228#8" to="-382662228#0" />
    <trip id="152" depart="152.00" from="425049540#2" to="278822219#1" />
    <trip id="153" depart="153.00" from="470482419" to="-382662228#0" />
    <trip id="154" depart="154.00" from="467452783#4" to="-454001586#0" />
    <trip id="155" depart="155.00" from="467452783#3" to="210304100#0" />
    <trip id="156" depart="156.00" from="210304097" to="433012747#3" />
    <trip id="157" depart="157.00" from="425049540#2" to="278822219#1" />
    <trip id="158" depart="158.00" from="387347114#0" to="4516015#5" />
    <trip id="159" depart="159.00" from="387347114#0" to="59276963#3" />
    <trip id="160" depart="160.00" from="382662228#11" to="278822219#1" />
    <trip id="161" depart="161.00" from="-382662228#11" to="278822219#1" />
    <trip id="162" depart="162.00" from="380240519#0" to="-191540422" />
    <trip id="163" depart="163.00" from="387347114#4" to="382662228#11" />
    <trip id="164" depart="164.00" from="4516015#8" to="456458233#9" />
    <trip id="165" depart="165.00" from="387347114#4" to="-5003754#1" />
    <trip id="166" depart="166.00" from="387347114#0" to="210304097" />
    <trip id="167" depart="167.00" from="157934986" to="278822219#1" />
    <trip id="168" depart="168.00" from="466718969#1" to="-382662228#0" />
    <trip id="169" depart="169.00" from="382662228#7" to="278822219#1" />
    <trip id="170" depart="170.00" from="387347115#3" to="-382662228#8" />
    <trip id="171" depart="171.00" from="191536524" to="485559470#2" />
    <trip id="172" depart="172.00" from="380240519#0" to="467485533" />
    <trip id="173" depart="173.00" from="-467485533" to="278822219#1" />
    <trip id="174" depart="174.00" from="59276962#1" to="454001586#1" />
    <trip id="175" depart="175.00" from="-157934984#4" to="278822219#1" />
    <trip id="176" depart="176.00" from="-433012747#3" to="278822219#1" />
    <trip id="177" depart="177.00" from="-463518873" to="463518874" />
    <trip id="178" depart="178.00" from="467485528#1" to="278822219#1" />
    <trip id="179" depart="179.00" from="387347114#4" to="278822219#1" />
    <trip id="180" depart="180.00" from="461984370#0" to="387347115#3" />
    <trip id="181" depart="181.00" from="-463518873" to="278822219#1" />
    <trip id="182" depart="182.00" from="490267997" to="278822219#1" />
    <trip id="183" depart="183.00" from="210304098" to="-382662228#1" />
    <trip id="184" depart="184.00" from="161072040" to="278822219#1" />
    <trip id="185" depart="185.00" from="-4318808#1" to="210304100#3" />
    <trip id="186" depart="186.00" from="-157934984#4" to="278822219#1" />
    <trip id="187" depart="187.00" from="210304100#0" to="-382662228#8" />
    <trip id="188" depart="188.00" from="461984372" to="157934985#6" />
    <trip id="189" depart="189.00" from="467452783#0" to="278822219#1" />
    <trip id="190" depart="190.00" from="36326642#7" to="278822219#1" />
    <trip id="191" depart="191.00" from="210304183#4" to="467488050" />
    <trip id="192" depart="192.00" from="-463518874" to="278822219#1" />
    <trip id="193" depart="193.00" from="387347114#0" to="382662228#7" />
    <trip id="194" depart="194.00" from="-157934984#2" to="278822219#1" />
    <trip id="195" depart="195.00" from="-191539788" to="16284720#2" />
    <trip id="196" depart="196.00" from="38682897#3" to="278822219#1" />
    <trip id="197" depart="197.00" from="-467487236" to="387347115#4" />
    <trip id="198" depart="198.00" from="16284720#8" to="278822219#1" />
    <trip id="199" depart="199.00" from="380240519#0" to="4516015#0" />
</trips>
