<?xml version="1.0" encoding="UTF-8"?>

<!-- generated on 06/02/18 13:21:50 by SUMO duarouter Version 0.25.0
<?xml version="1.0" encoding="UTF-8"?>

<configuration xmlns:xsi="http://www.w3.org/2001/XMLSchema-instance" xsi:noNamespaceSchemaLocation="http://sumo.dlr.de/xsd/duarouterConfiguration.xsd">

    <input>
        <net-file value="amirkabir.net.xml"/>
        <trip-files value="trips.trips.xml"/>
    </input>

    <output>
        <output-file value="amirkabirNew.rou.xml"/>
    </output>

    <processing>
        <ignore-errors value="true"/>
    </processing>

    <time>
        <begin value="0"/>
        <end value="600.0"/>
    </time>

    <report>
        <no-warnings value="true"/>
        <no-step-log value="true"/>
    </report>

</configuration>
-->

<routes xmlns:xsi="http://www.w3.org/2001/XMLSchema-instance" xsi:noNamespaceSchemaLocation="http://sumo.dlr.de/xsd/routes_file.xsd">
    <vehicle id="3" depart="3.00">
        <route edges="5003754#0 -5003754#0 4318811#1 4318811#2 4318811#3 4318811#4 36326642#0 36326642#1 36326642#2 36326642#3 36326642#4 36326642#5 36326642#6 36326642#7 36326642#8 36326642#9 36326642#10 36326642#11 36326642#12 36326642#13 36326642#14 36326642#15 36326642#16 36326642#17 36326642#18 36326642#19 380240519#3 380240519#4 380240519#5 382662228#7 382662228#8 382662228#9 382662228#10 382662228#11 382662228#12"/>
    </vehicle>
    <vehicle id="4" depart="4.00">
        <route edges="-157934984#4 -157934984#3 -157934984#2 -157934984#1 -157934984#0 467452783#3 467452783#4 467452783#5 463303146 463303145 463299695#0 210304183#4 81109498 -81109508"/>
    </vehicle>
    <vehicle id="5" depart="5.00">
        <route edges="382662228#0 5003754#2 380240716#0 380240716#1 380240716#2 380240716#3 380240716#4 380240716#5 380240716#6 380240716#7 380240716#8 -157934984#2 -157934984#1 -157934984#0 467452783#3 157934985#0 157934985#1 463518872#1 4516015#8"/>
    </vehicle>
    <vehicle id="6" depart="6.00">
        <route edges="382662228#1 433012747#5 456458233#5 456458233#6 456458233#7 380240716#0 380240716#1 380240716#2 380240716#3 380240716#4 380240716#5 380240716#6 380240716#7 380240716#8 -157934984#2 -157934984#1 -157934984#0 467452783#3 157934985#0 157934985#1 157934985#2 157934985#3 157934985#4 157934985#5 157934985#6 157934978#0 157934978#1 157934978#2"/>
    </vehicle>
    <vehicle id="10" depart="10.00">
        <route edges="485559470#2 485559470#3 485559470#4 456458153#0 456458153#1 456458153#2 456458233#0 456458233#1 456458233#2 456458233#3 456458233#4 456458233#5 456458233#6 456458233#7 380240716#0 380240716#1 380240716#2 380240716#3 380240716#4 380240716#5 380240716#6 463301832#1 71881371#1 71881371#2 71881371#3 71881371#4 71881371#5 71881371#6 71881371#7"/>
    </vehicle>
    <vehicle id="13" depart="13.00">
        <route edges="-433012747#4 433012747#4 433012747#5 456458233#5 456458233#6 456458233#7 380240716#0 380240716#1 380240716#2 380240716#3 380240716#4 380240716#5 380240716#6 463301832#1 463301832#2 463303145 463299695#0 210304183#4 81109498 -81109508"/>
    </vehicle>
    <vehicle id="17" depart="17.00">
        <route edges="382662228#8 -382662228#8 -382662228#7 -382662228#6 -382662228#5 -382662228#4 456458234#1 456458234#2 456458234#3 36326642#17 36326642#18 36326642#19 36326642#20"/>
    </vehicle>
    <vehicle id="21" depart="21.00">
        <route edges="433012747#3 433012747#4 433012747#5 456458233#5 456458233#6 456458233#7 380240716#0 380240716#1 380240716#2 380240716#3 380240716#4 380240716#5 380240716#6 380240716#7 380240716#8 -157934984#2 -157934984#1 -157934984#0 467452783#3 157934985#0 157934985#1 463518872#1 -463518872#1"/>
    </vehicle>
    <vehicle id="22" depart="22.00">
        <route edges="463518873 -463518873 470482605#3 463301830 463303144#0 463303144#1 380240716#8 380240716#9"/>
    </vehicle>
    <vehicle id="23" depart="23.00">
        <route edges="382662228#7 -382662228#7 380240519#6 456458152#0 456458152#1 456458152#2 456458152#3 456458152#4 456458152#5 210304097"/>
    </vehicle>
    <vehicle id="24" depart="24.00">
        <route edges="36326642#4 36326642#5 36326642#6 36326642#7 36326642#8 36326642#9 36326642#10 36326642#11 36326642#12 36326642#13 36326642#14 36326642#15 36326642#16 36326642#17 387347115#4"/>
    </vehicle>
    <vehicle id="25" depart="25.00">
        <route edges="278822219#0 278822219#1"/>
    </vehicle>
    <vehicle id="26" depart="26.00">
        <route edges="467452783#4 467452783#5 463303144#0 463303144#1 380240716#8 -157934984#2 -157934984#1 -157934984#0 467452783#3"/>
    </vehicle>
    <vehicle id="27" depart="27.00">
        <route edges="-157934984#4 -157934984#3 -157934984#2 -157934984#1 -157934984#0 467452783#3 467452783#4 467452783#5 463303144#0 71881371#0 71881371#1 71881371#2 71881371#3 71881371#4 71881371#5 71881371#6 71881371#7 71881371#8 71881371#9 71881371#10 456458233#6 456458233#7 -5003754#2 -5003754#1 -5003754#0 4318811#1 4318811#2 4318811#3 4318811#4 36326642#0 36326642#1 36326642#2 36326642#3 36326642#4 -433012747#2 -433012747#1"/>
    </vehicle>
    <vehicle id="29" depart="29.00">
        <route edges="161072040 161072041 470482419 463299695#0 210304183#4 210304183#5 210304100#1 210304100#2 210304100#3 210304100#4 210304100#5 210304100#6 456458233#0 456458233#1 456458233#2 456458233#3 456458233#4 -433012747#5 -433012747#4 -433012747#3 -433012747#2 -16284720#8 -16284720#7 -16284720#6 -433012750"/>
    </vehicle>
    <vehicle id="33" depart="33.00">
        <route edges="191539800 191540158 4318808#1 16284720#3 16284720#4 16284720#5 16284720#6 16284720#7 16284720#8 433012747#2 36326642#5 36326642#6 36326642#7 36326642#8 36326642#9 36326642#10 36326642#11 36326642#12 36326642#13 36326642#14 36326642#15 36326642#16 36326642#17 36326642#18 36326642#19 36326642#20"/>
    </vehicle>
    <vehicle id="34" depart="34.00">
        <route edges="387347114#0 36326642#19 380240519#3 380240519#4 380240519#5 -382662228#6 -382662228#5 -382662228#4 456458234#1 456458234#2 456458234#3 456458234#4"/>
    </vehicle>
    <vehicle id="35" depart="35.00">
        <route edges="485559470#2 485559470#3 485559470#4 456458153#0 456458153#1 387347115#2 382662228#5 382662228#6 382662228#7"/>
    </vehicle>
    <vehicle id="39" depart="39.00">
        <route edges="382662228#7 -382662228#7 -382662228#6 387347114#3 456458153#1 456458153#2 456458233#0 456458233#1 456458233#2 456458233#3 456458233#4 -433012747#5 -433012747#4 -433012747#3 -433012747#2 -16284720#8 -16284720#7 -16284720#6 -16284720#5 -16284720#4 -16284720#3 -4318808#1 -4318808#0"/>
    </vehicle>
    <vehicle id="41" depart="41.00">
        <route edges="380240519#0 380240519#1 380240519#2 380240519#3 380240519#4 380240519#5 -382662228#6 387347114#3 456458153#1 456458153#2 456458233#0 456458233#1 456458233#2 456458233#3 456458233#4 -433012747#5 -433012747#4 -433012747#3 36326642#5 36326642#6 36326642#7 36326642#8 36326642#9 36326642#10 36326642#11 36326642#12 36326664#0 36326664#1 36326664#2 191541062#0 -191541077#1"/>
    </vehicle>
    <vehicle id="43" depart="43.00">
        <route edges="463518874 157934985#5 157934985#6 157934985#7 210304183#2 210304183#3 210304183#4 210304183#5 210304100#1 210304100#2 210304100#3 210304100#4 210304100#5 210304100#6 456458233#0 456458233#1 456458233#2 456458233#3 456458233#4 -433012747#5 -433012747#4 -433012747#3 36326642#5 36326642#6 191541063"/>
    </vehicle>
    <vehicle id="46" depart="46.00">
        <route edges="463301830 463303144#0 463303144#1 380240716#8 157934984#3 157934984#4"/>
    </vehicle>
    <vehicle id="48" depart="48.00">
        <route edges="433012747#0 433012747#1 433012747#2 36326642#5 36326642#6 36326642#7 36326642#8 36326642#9 36326642#10 36326642#11 36326642#12 36326642#13 36326642#14 36326642#15 36326642#16 36326642#17 36326642#18 36326642#19 36326642#20"/>
    </vehicle>
    <vehicle id="52" depart="52.00">
        <route edges="-5003754#0 5003754#0 5003754#1 5003754#2 380240716#0 380240716#1 380240716#2 380240716#3 380240716#4 380240716#5 380240716#6 380240716#7 380240716#8 157934984#3 157934984#4"/>
    </vehicle>
    <vehicle id="53" depart="53.00">
        <route edges="380240716#8 -157934984#2 -157934984#1 -157934984#0 467452783#3 467452783#4 467452783#5 463303144#0 71881371#0 71881371#1 71881371#2 71881371#3 71881371#4 71881371#5 71881371#6 71881371#7 71881371#8 71881371#9 71881371#10 456458233#6 456458233#7 -5003754#2 -5003754#1 -5003754#0 4318811#1 4318811#2 4318811#3 -4318808#3 -4318808#2 16284720#3 16284720#4 -191539566"/>
    </vehicle>
    <vehicle id="55" depart="55.00">
        <route edges="461984372 380240519#4 380240519#5 -382662228#6 387347114#3 456458153#1 456458153#2 456458233#0 456458233#1 456458233#2 456458233#3 456458233#4 456458233#5 456458233#6 456458233#7 -5003754#2 -5003754#1 -461984370#1 -461984370#0"/>
    </vehicle>
    <vehicle id="57" depart="57.00">
        <route edges="380240519#0 380240519#1 380240519#2 380240519#3 380240519#4 380240519#5 -382662228#6 387347114#3 456458153#1 456458153#2 456458233#0 456458233#1 456458233#2 456458233#3 456458233#4 456458233#5 456458233#6 456458233#7 380240716#0 380240716#1"/>
    </vehicle>
    <vehicle id="58" depart="58.00">
        <route edges="-382662228#10 -382662228#9 -382662228#8 -382662228#7 -382662228#6 387347114#3 456458153#1 456458153#2 456458233#0 456458233#1 456458233#2 456458233#3 456458233#4 -433012747#5 -433012747#4 -433012747#3 -433012747#2 -433012747#1 -433012747#0 433012748#0 433012748#1 433012748#2"/>
    </vehicle>
    <vehicle id="62" depart="62.00">
        <route edges="38682897#2 38682897#3 38682897#4 38682897#5 210304098 210304100#0 210304100#1 210304100#2 210304100#3 210304100#4 210304100#5 210304100#6 456458234#0 456458234#1 456458234#2 456458234#3 456458234#4"/>
    </vehicle>
    <vehicle id="64" depart="64.00">
        <route edges="-382662228#12 -382662228#11 -382662228#10 -382662228#9 -382662228#8 -382662228#7 -382662228#6 -382662228#5 -382662228#4 456458234#1 456458234#2 456458234#3 36326642#17 387347115#4"/>
    </vehicle>
    <vehicle id="66" depart="66.00">
        <route edges="-466717925 4516015#5 4516015#6 4516015#7 4516015#8 157934984#0 157934984#1 157934984#2 380240716#9"/>
    </vehicle>
    <vehicle id="72" depart="72.00">
        <route edges="36326642#4 36326642#5 36326642#6 36326642#7 36326642#8 36326642#9 36326642#10 36326642#11 36326642#12 36326642#13 36326642#14 36326642#15 36326642#16 36326642#17 36326642#18 36326642#19 380240519#3 380240519#4 380240519#5 382662228#7 382662228#8 382662228#9 382662228#10 -382662228#10"/>
    </vehicle>
    <vehicle id="74" depart="74.00">
        <route edges="387347115#0 387347115#1 456458153#2 456458233#0 456458233#1 456458233#2 456458233#3 456458233#4 456458233#5 456458233#6 456458233#7 380240716#0 380240716#1 380240716#2 380240716#3 380240716#4 380240716#5 380240716#6 380240716#7 380240716#8 -157934984#2 -157934984#1 -157934984#0 467452783#3 157934985#0 157934985#1 463518872#1"/>
    </vehicle>
    <vehicle id="77" depart="77.00">
        <route edges="157934986 157934985#6 157934985#7 210304183#2 210304183#3 210304183#4 210304183#5 210304100#1 210304100#2 210304100#3 210304100#4 210304100#5 210304100#6 456458234#0 382662228#4 382662228#5 382662228#6 382662228#7 382662228#8 382662228#9 382662228#10 -382662228#10"/>
    </vehicle>
    <vehicle id="78" depart="78.00">
        <route edges="456458152#2 456458152#3 456458152#4 456458152#5 210304097 210304104#0 35103852"/>
    </vehicle>
    <vehicle id="82" depart="82.00">
        <route edges="468419425 71881371#9 71881371#10 456458233#6 456458233#7 -5003754#2 -5003754#1 -5003754#0 4318811#1 4318811#2 4318811#3 4318811#4 36326642#0 36326642#1 36326642#2 36326642#3 36326642#4 -433012747#2 -433012747#1 -433012747#0"/>
    </vehicle>
    <vehicle id="83" depart="83.00">
        <route edges="191541063 -191541063 36326642#7 36326642#8 36326642#9 36326642#10 36326642#11 36326642#12 36326642#13 36326642#14 36326642#15 36326642#16 36326642#17 36326642#18 36326642#19 380240519#3 380240519#4 380240519#5 -382662228#6 387347114#3 456458153#1 456458153#2 456458233#0 456458233#1 456458233#2 456458233#3 456458233#4 -433012747#5 -433012747#4 -433012747#3 433012747#3"/>
    </vehicle>
    <vehicle id="84" depart="84.00">
        <route edges="165214618#0 165214618#1 157934980#1 157934985#7 210304183#2 210304183#3 210304183#4 210304183#5 210304100#1 210304100#2 210304100#3 210304100#4 210304100#5 210304100#6 456458234#0 456458234#1 456458234#2 456458234#3 36326642#17 387347115#4"/>
    </vehicle>
    <vehicle id="87" depart="87.00">
        <route edges="387347114#0 36326642#19 380240519#3 380240519#4 380240519#5 -382662228#6 387347114#3 456458153#1 456458153#2 456458233#0 456458233#1 456458233#2 456458233#3 456458233#4 -433012747#5 -433012747#4 -433012747#3 -433012747#2 -16284720#8"/>
    </vehicle>
    <vehicle id="89" depart="89.00">
        <route edges="-466718965 165214618#1 157934980#1 157934985#7 210304183#2 210304183#3 210304183#4 210304183#5 210304100#1 210304100#2 210304100#3 210304100#4 210304100#5 210304100#6 456458233#0 456458233#1 456458233#2 456458233#3"/>
    </vehicle>
    <vehicle id="92" depart="92.00">
        <route edges="-382662228#2"/>
    </vehicle>
    <vehicle id="94" depart="94.00">
        <route edges="387347115#3 36326642#18 36326642#19 380240519#3 380240519#4 380240519#5 382662228#7 382662228#8 382662228#9 382662228#10 382662228#11 382662228#12"/>
    </vehicle>
    <vehicle id="96" depart="96.00">
        <route edges="-382662228#12 -382662228#11 -382662228#10 -382662228#9 -382662228#8 -382662228#7 -382662228#6 387347114#3 456458153#1 456458153#2 456458233#0 456458233#1 456458233#2 456458233#3 456458233#4 456458233#5 456458233#6 456458233#7 380240716#0 380240716#1 380240716#2 380240716#3 380240716#4 380240716#5 380240716#6 380240716#7 380240716#8"/>
    </vehicle>
    <vehicle id="98" depart="98.00">
        <route edges="38682897#4 38682897#5 210304098 210304100#0 210304100#1 210304100#2 210304100#3 210304100#4 210304100#5 210304100#6 456458233#0 456458233#1 456458233#2 456458233#3 456458233#4 -433012747#5 -433012747#4"/>
    </vehicle>
    <vehicle id="99" depart="99.00">
        <route edges="157934985#0 157934985#1 157934985#2 157934985#3 157934985#4 157934985#5 157934985#6 157934985#7 210304183#2 210304183#3 210304183#4 210304183#5 210304100#1 210304100#2 210304100#3 210304100#4 210304100#5 210304100#6 456458234#0 456458234#1 456458234#2 456458234#3 36326642#17 387347115#4"/>
    </vehicle>
    <vehicle id="100" depart="100.00">
        <route edges="4297761 433012747#0 433012747#1 -16284720#8 -16284720#7 -16284720#6 -16284720#5 -16284720#4 -16284720#3 4318808#2 4318808#3 4318811#4 4318811#5 4318811#0 5003754#0 5003754#1 5003754#2 380240716#0 380240716#1 380240716#2 380240716#3 380240716#4 380240716#5 380240716#6 380240716#7 380240716#8"/>
    </vehicle>
    <vehicle id="101" depart="101.00">
        <route edges="425049540#0 425049540#1 425049540#2 425049540#3 4318811#2 4318811#3 4318811#4 36326642#0 36326642#1 36326642#2 36326642#3 36326642#4 36326642#5 36326642#6 36326642#7 36326642#8 36326642#9 36326642#10 36326642#11 36326642#12 36326642#13 36326642#14 36326642#15 36326642#16 36326642#17 36326642#18 36326642#19 380240519#3 380240519#4 380240519#5 382662228#7 382662228#8 382662228#9 382662228#10 382662228#11 382662228#12"/>
    </vehicle>
    <vehicle id="102" depart="102.00">
        <route edges="191536516 16284720#2 16284720#3 16284720#4 16284720#5 16284720#6 16284720#7 16284720#8 433012747#2 36326642#5 36326642#6 36326642#7 36326642#8 36326642#9 36326642#10 36326642#11 36326642#12 36326642#13 36326642#14 36326642#15 36326642#16 36326642#17 36326642#18 36326642#19 36326642#20"/>
    </vehicle>
    <vehicle id="112" depart="112.00">
        <route edges="-382662228#11 -382662228#10 382662228#10"/>
    </vehicle>
    <vehicle id="115" depart="115.00">
        <route edges="-433012747#0 433012747#0 433012747#1 433012747#2 36326642#5 36326642#6 36326642#7 36326642#8 36326642#9 36326642#10 36326642#11 36326642#12 36326642#13 36326642#14 36326642#15 36326642#16 36326642#17 36326642#18 36326642#19 380240519#3 -461984372"/>
    </vehicle>
    <vehicle id="116" depart="116.00">
        <route edges="425049540#0 425049540#1 425049540#2 425049540#3 4318811#2 4318811#3 4318811#4 36326642#0 36326642#1 36326642#2 36326642#3 36326642#4 36326642#5 36326642#6 36326642#7 36326642#8 36326642#9 36326642#10 36326642#11 36326642#12 36326642#13 36326642#14 36326642#15 36326642#16 36326642#17 36326642#18 36326642#19 380240519#3 380240519#4 380240519#5 -382662228#6 387347114#3 387347114#4"/>
    </vehicle>
    <vehicle id="118" depart="118.00">
        <route edges="382662228#11 -382662228#11 -382662228#10 -382662228#9 -382662228#8 -382662228#7 -382662228#6 387347114#3 456458153#1 456458153#2 456458233#0 456458233#1 456458233#2 456458233#3 456458233#4 456458233#5 456458233#6 456458233#7 380240716#0 380240716#1 380240716#2 380240716#3 380240716#4 380240716#5 380240716#6 380240716#7 380240716#8 -157934984#2 -157934984#1 -157934984#0 467452783#3 157934985#0 157934985#1 157934985#2 -463518873"/>
    </vehicle>
    <vehicle id="119" depart="119.00">
        <route edges="461984370#0 461984370#1 5003754#1 5003754#2 380240716#0 380240716#1 380240716#2 380240716#3 380240716#4 380240716#5 380240716#6 463301832#1 463301832#2 463303145 463299695#0 210304183#4 210304183#5 210304100#1 210304100#2 -181526861#2 -181526861#1 467485530#0"/>
    </vehicle>
    <vehicle id="121" depart="121.00">
        <route edges="-433012747#0 433012747#0 433012747#1 433012747#2 36326642#5 36326642#6 36326642#7 36326642#8 36326642#9 36326642#10 36326642#11 36326642#12 36326642#13 36326642#14 36326642#15 36326642#16 36326642#17 36326642#18 36326642#19 380240519#3 380240519#4 380240519#5 382662228#7"/>
    </vehicle>
    <vehicle id="123" depart="123.00">
        <route edges="382662228#1 -433012747#4 -433012747#3 -433012747#2 -433012747#1 -433012747#0 433012748#0 433012748#1 -191541063"/>
    </vehicle>
    <vehicle id="125" depart="125.00">
        <route edges="71881371#7 71881371#8 71881371#9 71881371#10 456458233#6 456458233#7 380240716#0 380240716#1 380240716#2 380240716#3 380240716#4 380240716#5 380240716#6 380240716#7 380240716#8 -157934984#2 -157934984#1 -157934984#0 467452783#3 157934985#0 157934985#1 157934985#2 -463518873 470482605#3"/>
    </vehicle>
    <vehicle id="129" depart="129.00">
        <route edges="-157934984#4 -157934984#3 -157934984#2 -157934984#1 -157934984#0 467452783#3 467452783#4 467452783#5 463303146 463303145 463299695#0 210304183#4 210304183#5 210304100#1 210304100#2 210304100#3 210304100#4 210304100#5 210304100#6 456458233#0 456458233#1 456458233#2 456458233#3 456458233#4 -433012747#5 -382662228#1"/>
    </vehicle>
    <vehicle id="130" depart="130.00">
        <route edges="71881371#10 456458233#6 456458233#7 -5003754#2 -5003754#1 -5003754#0 4318811#1 4318811#2 4318811#3 4318811#4 36326642#0 36326642#1 36326642#2 36326642#3 36326642#4 36326642#5 36326642#6 36326642#7 36326642#8 36326642#9 36326642#10 36326642#11 36326642#12 36326642#13 36326642#14 36326642#15 36326642#16 36326642#17 36326642#18 36326642#19 380240519#3 380240519#4 380240519#5 382662228#7 382662228#8 382662228#9 382662228#10 -382662228#10"/>
    </vehicle>
    <vehicle id="132" depart="132.00">
        <route edges="387347115#3 36326642#18 36326642#19 380240519#3 380240519#4 380240519#5 -382662228#6 387347114#3 456458153#1 456458153#2 456458233#0 456458233#1 456458233#2 456458233#3 456458233#4 456458233#5 456458233#6 456458233#7 380240716#0 380240716#1 380240716#2 380240716#3 380240716#4 380240716#5 380240716#6 380240716#7 380240716#8 -157934984#2 -157934984#1 -157934984#0 467452783#3 157934985#0 157934985#1 157934985#2 157934985#3 157934985#4 157934985#5 157934985#6 157934978#0 157934978#1"/>
    </vehicle>
    <vehicle id="133" depart="133.00">
        <route edges="467485530#0 -467485530#0 181526861#1 181526861#2 210304100#3 210304100#4 210304100#5 210304100#6 456458234#0 382662228#4 382662228#5 382662228#6 382662228#7 382662228#8 382662228#9 382662228#10 382662228#11"/>
    </vehicle>
    <vehicle id="134" depart="134.00">
        <route edges="4297761 433012747#0 433012747#1 -16284720#8 -16284720#7 -16284720#6 -16284720#5 -16284720#4 -16284720#3 4318808#2 4318808#3 4318811#4 36326642#0 464583134"/>
    </vehicle>
    <vehicle id="138" depart="138.00">
        <route edges="157934985#5 157934985#6 157934985#7 210304183#2 210304183#3 210304183#4 210304183#5 210304100#1 210304100#2 -181526861#2 181526861#2"/>
    </vehicle>
    <vehicle id="140" depart="140.00">
        <route edges="-382662228#11 -382662228#10 -382662228#9 -382662228#8 -382662228#7 -382662228#6 -382662228#5 -382662228#4 456458234#1 456458234#2 456458234#3 36326642#17 387347115#4"/>
    </vehicle>
    <vehicle id="142" depart="142.00">
        <route edges="-467485528#1 467485528#1 71881371#8 71881371#9 71881371#10 456458233#6 456458233#7 380240716#0 380240716#1 380240716#2 380240716#3 380240716#4 380240716#5 380240716#6 380240716#7 380240716#8 -157934984#2"/>
    </vehicle>
    <vehicle id="144" depart="144.00">
        <route edges="36326642#1 36326642#2 36326642#3 36326642#4 36326642#5 36326642#6 36326642#7 36326642#8 36326642#9 36326642#10 36326642#11 36326642#12 36326642#13 36326642#14 36326642#15 36326642#16 456458234#4"/>
    </vehicle>
    <vehicle id="148" depart="148.00">
        <route edges="380240716#6 463301832#1 463301832#2 463303145 463299695#0 210304183#4 210304183#5 210304100#1 210304100#2 210304100#3 442236421#0 442236421#1 467485538"/>
    </vehicle>
    <vehicle id="152" depart="152.00">
        <route edges="-382662228#7 -382662228#6 387347114#3 456458153#1 456458153#2 456458233#0 456458233#1 456458233#2 456458233#3 456458233#4 456458233#5 456458233#6 456458233#7 380240716#0 380240716#1 380240716#2 380240716#3 380240716#4 380240716#5 380240716#6 380240716#7 380240716#8 -157934984#2 -157934984#1 271964725"/>
    </vehicle>
    <vehicle id="155" depart="155.00">
        <route edges="433012750 16284720#6 16284720#7 16284720#8 433012747#2 36326642#5 36326642#6 36326642#7 36326642#8 36326642#9 36326642#10 36326642#11 36326642#12 36326642#13 36326642#14 36326642#15 36326642#16 36326642#17 387347115#4"/>
    </vehicle>
    <vehicle id="159" depart="159.00">
        <route edges="157934985#7 210304183#2 210304183#3 210304183#4 210304183#5 210304100#1 210304100#2 210304100#3 210304100#4 210304100#5 210304100#6 456458234#0 382662228#4 382662228#5 382662228#6 380240519#6 456458152#0"/>
    </vehicle>
    <vehicle id="162" depart="162.00">
        <route edges="157934982 38682897#2 38682897#3 38682897#4 38682897#5 210304098 210304100#0 210304100#1 210304100#2 210304100#3 210304100#4 210304100#5 210304100#6 456458234#0 382662228#4 382662228#5 382662228#6 382662228#7"/>
    </vehicle>
    <vehicle id="163" depart="163.00">
        <route edges="16284720#1 16284720#2 4318808#2 4318808#3 4318811#4 4318811#5 4318811#0 5003754#0 5003754#1 5003754#2 380240716#0 380240716#1 380240716#2 380240716#3 380240716#4 380240716#5 -467203514#1 467203514#1"/>
    </vehicle>
    <vehicle id="164" depart="164.00">
        <route edges="210304100#1 210304100#2 210304100#3 210304100#4 210304100#5 210304100#6 456458234#0 382662228#4 382662228#5 382662228#6 382662228#7 382662228#8 382662228#9 382662228#10 382662228#11 382662228#12"/>
    </vehicle>
    <vehicle id="167" depart="167.00">
        <route edges="-81109498 210304183#5 210304100#1 210304100#2 210304100#3 210304100#4 210304100#5 210304100#6 456458233#0 456458233#1 456458233#2 456458233#3 456458233#4 -433012747#5 -433012747#4 -433012747#3 36326642#5 36326642#6 191541063"/>
    </vehicle>
    <vehicle id="169" depart="169.00">
        <route edges="485559470#2 485559470#3 485559470#4 456458153#0 456458153#1 456458153#2 456458233#0 456458233#1 456458233#2 456458233#3 456458233#4 456458233#5 456458233#6 302696298#0 302696298#1 302696298#2 467485528#1 71881371#8"/>
    </vehicle>
    <vehicle id="172" depart="172.00">
        <route edges="456458233#1 456458233#2 456458233#3 456458233#4 456458233#5 456458233#6 456458233#7 380240716#0 380240716#1 380240716#2 380240716#3 380240716#4 380240716#5 380240716#6 380240716#7 380240716#8 -157934984#2 -157934984#1 -157934984#0 467452783#3 157934985#0 157934985#1 157934985#2 157934985#3 157934985#4 157934985#5 157934985#6 157934978#0 157934978#1 157934978#2 470482605#0 466719267"/>
    </vehicle>
    <vehicle id="173" depart="173.00">
        <route edges="16284720#1 16284720#2 4318808#2 4318808#3 4318811#4 4318811#5 4318811#0 5003754#0 5003754#1 5003754#2 380240716#0 380240716#1 380240716#2 380240716#3 380240716#4 380240716#5 380240716#6 463301832#1 463301832#2 463303145 463299695#0 210304183#4 210304183#5 210304100#1 210304100#2 -181526861#2 181526861#2"/>
    </vehicle>
    <vehicle id="174" depart="174.00">
        <route edges="157934982 38682897#2 38682897#3 38682897#4 210304183#0 210304183#1 210304183#2 210304183#3 463299695#1 210304179#2 210304104#1 210304104#2 387347116"/>
    </vehicle>
    <vehicle id="175" depart="175.00">
        <route edges="463301832#2 463303145 463299695#0 210304183#4 210304183#5 210304100#1 210304100#2 210304100#3 210304100#4 210304100#5 210304100#6 456458234#0 456458234#1 456458234#2 456458234#3 456458234#4"/>
    </vehicle>
    <vehicle id="176" depart="176.00">
        <route edges="425049540#0 425049540#1 425049540#2 425049540#3 4318811#2 4318811#3 4318811#4 4318811#5 4318811#0 5003754#0 5003754#1 5003754#2 380240716#0 380240716#1 380240716#2 380240716#3 380240716#4 380240716#5 380240716#6 380240716#7 463303144#2"/>
    </vehicle>
    <vehicle id="179" depart="179.00">
        <route edges="-466718083 4516015#7 4516015#8 467452783#3 467452783#4 467452783#5 463303144#0 71881371#0 71881371#1 71881371#2 71881371#3 71881371#4 71881371#5 71881371#6 71881371#7 71881371#8 71881371#9 71881371#10 456458233#6 456458233#7 -5003754#2 -5003754#1 -5003754#0 4318811#1 4318811#2 4318811#3 4318811#4 36326642#0 36326642#1"/>
    </vehicle>
    <vehicle id="180" depart="180.00">
        <route edges="-433012747#3 -433012747#2 -16284720#8 -16284720#7 -16284720#6 -433012750 433012749#0 -191540422"/>
    </vehicle>
    <vehicle id="182" depart="182.00">
        <route edges="157934984#2 -157934984#2 -157934984#1 -157934984#0 467452783#3 157934985#0 157934985#1 157934985#2 157934985#3 157934985#4 157934985#5 157934985#6 157934985#7 210304183#2 210304183#3"/>
    </vehicle>
    <vehicle id="190" depart="190.00">
        <route edges="468419425 71881371#9 71881371#10 456458233#6 456458233#7 380240716#0 380240716#1 380240716#2 380240716#3 380240716#4 380240716#5 380240716#6 463301832#1 463301832#2 463303145"/>
    </vehicle>
    <vehicle id="191" depart="191.00">
        <route edges="-157934984#4 157934984#4"/>
    </vehicle>
    <vehicle id="195" depart="195.00">
        <route edges="161072041 470482419 463299695#0 210304183#4 210304183#5 210304100#1 210304100#2 210304100#3 210304100#4 210304100#5 210304100#6 456458233#0 456458233#1 456458233#2 456458233#3 456458233#4 456458233#5 456458233#6 456458233#7 -5003754#2 -5003754#1 -5003754#0"/>
    </vehicle>
    <vehicle id="196" depart="196.00">
        <route edges="382662228#0 -5003754#1 -5003754#0 4318811#1 4318811#2 4318811#3 4318811#4 36326642#0 36326642#1 36326642#2 36326642#3 36326642#4 36326642#5 36326642#6 36326642#7 36326642#8 36326642#9 36326642#10 36326642#11 36326642#12 36326642#13 36326642#14 36326642#15 36326642#16 36326642#17 36326642#18 36326642#19 380240519#3 380240519#4 380240519#5 382662228#7 382662228#8 382662228#9 382662228#10 382662228#11 -382662228#11"/>
    </vehicle>
    <vehicle id="199" depart="199.00">
        <route edges="191540422 433012749#1 433012749#2 433012747#0 433012747#1 -16284720#8 -16284720#7 -16284720#6 -16284720#5 -16284720#4 -16284720#3 4318808#2 4318808#3 4318811#4 4318811#5 4318811#0 5003754#0 5003754#1 5003754#2 380240716#0 380240716#1 380240716#2 380240716#3 380240716#4 380240716#5 380240716#6 380240716#7 380240716#8 380240716#9"/>
    </vehicle>
    <vehicle id="200" depart="200.00">
        <route edges="380240716#8 -157934984#2 -157934984#1 -157934984#0 467452783#3 467452783#4 467452783#5 463303144#0 71881371#0 71881371#1 71881371#2 71881371#3 71881371#4 71881371#5 71881371#6 71881371#7 71881371#8 71881371#9 71881371#10 456458233#6 456458233#7 -5003754#2 -5003754#1 -5003754#0 4318811#1 4318811#2 4318811#3 4318811#4 36326642#0 36326642#1 36326642#2 36326642#3 36326642#4 36326642#5 36326642#6 36326642#7 36326642#8 36326642#9 36326642#10 36326642#11 36326642#12 36326664#0 36326664#1 36326664#2 191541062#0 191541062#1"/>
    </vehicle>
    <vehicle id="201" depart="201.00">
        <route edges="463518872#1 -463518872#1 157934985#2 157934985#3 157934985#4 157934985#5 157934985#6 157934985#7 210304183#2 210304183#3 210304183#4 210304183#5 210304100#1 210304100#2 210304100#3 210304100#4 210304100#5 210304100#6 456458234#0 382662228#4 382662228#5 382662228#6 380240519#6 456458152#0 456458152#1 456458152#2"/>
    </vehicle>
    <vehicle id="203" depart="203.00">
        <route edges="-191541063 36326642#7 36326642#8 36326642#9 36326642#10 36326642#11 36326642#12 36326642#13 36326642#14 36326642#15 36326642#16 36326642#17 36326642#18 36326642#19 380240519#3 380240519#4 380240519#5 -382662228#6 387347114#3 387347114#4"/>
    </vehicle>
    <vehicle id="207" depart="207.00">