<?xml version="1.0" encoding="UTF-8"?>

<!-- generated on Fri Nov 10 02:46:20 2017 by SUMO netconvert Version 0.28.0
<?xml version="1.0" encoding="UTF-8"?>

<configuration xmlns:xsi="http://www.w3.org/2001/XMLSchema-instance" xsi:noNamespaceSchemaLocation="http://sumo.dlr.de/xsd/netconvertConfiguration.xsd">

    <input>
        <osm-files value="map.osm"/>
    </input>

    <output>
        <output-file value="amirkabir.net.xml"/>
    </output>

    <projection>
        <proj.utm value="true"/>
    </projection>

</configuration>
-->

<net version="0.27" xmlns:xsi="http://www.w3.org/2001/XMLSchema-instance" xsi:noNamespaceSchemaLocation="http://sumo.dlr.de/xsd/net_file.xsd">

    <location netOffset="-528230.99,-3948698.08" convBoundary="0.00,0.00,18864.31,13374.29" origBoundary="51.312053,35.681506,51.521218,35.801773" projParameter="+proj=utm +zone=39 +ellps=WGS84 +datum=WGS84 +units=m +no_defs"/>

    <type id="highway.bridleway" priority="1" numLanes="1" speed="2.78" allow="pedestrian" oneway="1" width="2.00"/>
    <type id="highway.bus_guideway" priority="1" numLanes="1" speed="8.33" allow="bus" oneway="1"/>
    <type id="highway.cycleway" priority="1" numLanes="1" speed="5.56" allow="bicycle" oneway="0" width="1.00"/>
    <type id="highway.footway" priority="1" numLanes="1" speed="2.78" allow="pedestrian" oneway="1" width="2.00"/>
    <type id="highway.ford" priority="1" numLanes="1" speed="2.78" allow="army" oneway="0"/>
    <type id="highway.living_street" priority="3" numLanes="1" speed="2.78" disallow="tram rail_urban rail rail_electric ship" oneway="0"/>
    <type id="highway.motorway" priority="13" numLanes="2" speed="44.44" allow="private emergency authority army vip passenger hov taxi bus coach delivery truck trailer motorcycle evehicle custom1 custom2" oneway="1"/>
    <type id="highway.motorway_link" priority="12" numLanes="1" speed="22.22" allow="private emergency authority army vip passenger hov taxi bus coach delivery truck trailer motorcycle evehicle custom1 custom2" oneway="1"/>
    <type id="highway.path" priority="1" numLanes="1" speed="2.78" allow="bicycle pedestrian" oneway="1" width="2.00"/>
    <type id="highway.pedestrian" priority="1" numLanes="1" speed="2.78" allow="pedestrian" oneway="1" width="2.00"/>
    <type id="highway.primary" priority="9" numLanes="2" speed="27.78" disallow="tram rail_urban rail rail_electric ship" oneway="0"/>
    <type id="highway.primary_link" priority="8" numLanes="1" speed="22.22" disallow="tram rail_urban rail rail_electric ship" oneway="0"/>
    <type id="highway.raceway" priority="14" numLanes="2" speed="83.33" allow="vip" oneway="0"/>
    <type id="highway.residential" priority="4" numLanes="1" speed="13.89" disallow="tram rail_urban rail rail_electric ship" oneway="0"/>
    <type id="highway.secondary" priority="7" numLanes="2" speed="27.78" disallow="tram rail_urban rail rail_electric ship" oneway="0"/>
    <type id="highway.secondary_link" priority="6" numLanes="1" speed="22.22" disallow="tram rail_urban rail rail_electric ship" oneway="0"/>
    <type id="highway.service" priority="2" numLanes="1" speed="5.56" allow="delivery bicycle pedestrian" oneway="0"/>
    <type id="highway.services" priority="1" numLanes="1" speed="8.33" disallow="tram rail_urban rail rail_electric ship" oneway="0"/>
    <type id="highway.stairs" priority="1" numLanes="1" speed="1.39" allow="pedestrian" oneway="1" width="2.00"/>
    <type id="highway.step" priority="1" numLanes="1" speed="1.39" allow="pedestrian" oneway="1" width="2.00"/>
    <type id="highway.steps" priority="1" numLanes="1" speed="1.39" allow="pedestrian" oneway="1" width="2.00"/>
    <type id="highway.tertiary" priority="6" numLanes="1" speed="22.22" disallow="tram rail_urban rail rail_electric ship" oneway="0"/>
    <type id="highway.tertiary_link" priority="5" numLanes="1" speed="22.22" disallow="tram rail_urban rail rail_electric ship" oneway="0"/>
    <type id="highway.track" priority="1" numLanes="1" speed="5.56" disallow="tram rail_urban rail rail_electric ship" oneway="0"/>
    <type id="highway.trunk" priority="11" numLanes="2" speed="27.78" disallow="tram rail_urban rail rail_electric bicycle pedestrian ship" oneway="0"/>
    <type id="highway.trunk_link" priority="10" numLanes="1" speed="22.22" disallow="tram rail_urban rail rail_electric bicycle pedestrian ship" oneway="0"/>
    <type id="highway.unclassified" priority="5" numLanes="1" speed="13.89" disallow="tram rail_urban rail rail_electric ship" oneway="0"/>
    <type id="highway.unsurfaced" priority="1" numLanes="1" speed="8.33" disallow="tram rail_urban rail rail_electric ship" oneway="0"/>
    <type id="railway.light_rail" priority="15" numLanes="1" speed="27.78" allow="rail_urban" oneway="1"/>
    <type id="railway.preserved" priority="15" numLanes="1" speed="27.78" allow="rail" oneway="1"/>
    <type id="railway.rail" priority="15" numLanes="1" speed="83.33" allow="rail rail_electric" oneway="1"/>
    <type id="railway.subway" priority="15" numLanes="1" speed="27.78" allow="rail_urban" oneway="1"/>
    <type id="railway.tram" priority="15" numLanes="1" speed="13.89" allow="tram" oneway="1"/>

    <edge id=":166160593_0" function="internal">
        <lane id=":166160593_0_0" index="0" disallow="tram rail_urban rail rail_electric ship" speed="27.78" length="4.82" shape="8038.79,2913.01 8037.59,2913.88 8036.67,2913.98 8036.04,2913.31 8035.70,2911.86"/>
    </edge>
    <edge id=":166160596_0" function="internal">
        <lane id=":166160596_0_0" index="0" disallow="tram rail_urban rail rail_electric ship" speed="27.78" length="5.40" shape="8117.01,2721.29 8115.58,2721.01 8114.40,2721.26 8113.45,2722.05 8112.74,2723.36"/>
    </edge>
    <edge id=":166160596_1" function="internal">
        <lane id=":166160596_1_0" index="0" disallow="tram rail_urban rail rail_electric ship" speed="27.78" length="16.36" shape="8117.01,2721.29 8101.57,2715.96"/>
        <lane id=":166160596_1_1" index="1" disallow="tram rail_urban rail rail_electric ship" speed="27.78" length="16.36" shape="8118.11,2718.18 8102.62,2712.83"/>
    </edge>
    <edge id=":166160596_3" function="internal">
        <lane id=":166160596_3_0" index="0" disallow="tram rail_urban rail rail_electric ship" speed="27.78" length="15.78" shape="8118.11,2718.18 8114.27,2716.17 8112.01,2713.42 8111.35,2709.92 8112.26,2705.69"/>
    </edge>
    <edge id=":166160596_4" function="internal">
        <lane id=":166160596_4_0" index="0" disallow="tram rail_urban rail rail_electric ship" speed="27.78" length="4.82" shape="8118.11,2718.18 8117.22,2716.99 8117.10,2716.07 8117.77,2715.43 8119.21,2715.07"/>
    </edge>
    <edge id=":166160596_5" function="internal">
        <lane id=":166160596_5_0" index="0" disallow="tram rail_urban rail rail_electric ship" speed="27.78" length="5.02" shape="8118.45,2707.98 8118.16,2709.33 8118.37,2710.44 8119.09,2711.32 8120.31,2711.96"/>
    </edge>
    <edge id=":166160596_6" function="internal">
        <lane id=":166160596_6_0" index="0" disallow="tram rail_urban rail rail_electric ship" speed="27.78" length="16.41" shape="8118.45,2707.98 8112.74,2723.36"/>
        <lane id=":166160596_6_1" index="1" disallow="tram rail_urban rail rail_electric ship" speed="27.78" length="16.41" shape="8115.36,2706.84 8109.65,2722.22"/>
    </edge>
    <edge id=":166160596_8" function="internal">
        <lane id=":166160596_8_0" index="0" disallow="tram rail_urban rail rail_electric ship" speed="27.78" length="6.45" shape="8115.36,2706.84 8113.29,2710.64 8111.64,2711.97"/>
    </edge>
    <edge id=":166160596_9" function="internal">
        <lane id=":166160596_9_0" index="0" disallow="tram rail_urban rail rail_electric ship" speed="27.78" length="2.41" shape="8115.36,2706.84 8114.15,2707.71 8113.24,2707.81"/>
    </edge>
    <edge id=":166160596_20" function="internal">
        <lane id=":166160596_20_0" index="0" speed="27.78" length="9.49" shape="8111.64,2711.97 8110.48,2712.91 8106.92,2713.64 8102.62,2712.83"/>
    </edge>
    <edge id=":166160596_21" function="internal">
        <lane id=":166160596_21_0" index="0" speed="27.78" length="2.41" shape="8113.24,2707.81 8112.61,2707.13 8112.26,2705.69"/>
    </edge>
    <edge id=":166160596_10" function="internal">
        <lane id=":166160596_10_0" index="0" disallow="tram rail_urban rail rail_electric ship" speed="27.78" length="5.53" shape="8104.73,2706.58 8106.24,2706.86 8107.48,2706.62 8108.45,2705.84 8109.17,2704.54"/>
    </edge>
    <edge id=":166160596_11" function="internal">
        <lane id=":166160596_11_0" index="0" disallow="tram rail_urban rail rail_electric ship" speed="27.78" length="16.46" shape="8104.73,2706.58 8120.31,2711.96"/>
        <lane id=":166160596_11_1" index="1" disallow="tram rail_urban rail rail_electric ship" speed="27.78" length="16.46" shape="8103.68,2709.71 8119.21,2715.07"/>
    </edge>
    <edge id=":166160596_13" function="internal">
        <lane id=":166160596_13_0" index="0" disallow="tram rail_urban rail rail_electric ship" speed="27.78" length="15.92" shape="8103.68,2709.71 8107.59,2711.68 8109.89,2714.42 8110.57,2717.93 8109.65,2722.22"/>
    </edge>
    <edge id=":166160596_14" function="internal">
        <lane id=":166160596_14_0" index="0" disallow="tram rail_urban rail rail_electric ship" speed="27.78" length="4.82" shape="8103.68,2709.71 8104.59,2710.88 8104.71,2711.80 8104.06,2712.45 8102.62,2712.83"/>
    </edge>
    <edge id=":166160596_15" function="internal">
        <lane id=":166160596_15_0" index="0" disallow="tram rail_urban rail rail_electric ship" speed="27.78" length="5.04" shape="8103.46,2719.92 8103.75,2718.56 8103.53,2717.45 8102.81,2716.59 8101.57,2715.96"/>
    </edge>
    <edge id=":166160596_16" function="internal">
        <lane id=":166160596_16_0" index="0" disallow="tram rail_urban rail rail_electric ship" speed="27.78" length="16.41" shape="8103.46,2719.92 8109.17,2704.54"/>
        <lane id=":166160596_16_1" index="1" disallow="tram rail_urban rail rail_electric ship" speed="27.78" length="16.41" shape="8106.55,2721.07 8112.26,2705.69"/>
    </edge>
    <edge id=":166160596_18" function="internal">
        <lane id=":166160596_18_0" index="0" disallow="tram rail_urban rail rail_electric ship" speed="27.78" length="6.52" shape="8106.55,2721.07 8108.63,2717.22 8110.30,2715.86"/>
    </edge>
    <edge id=":166160596_19" function="internal">
        <lane id=":166160596_19_0" index="0" disallow="tram rail_urban rail rail_electric ship" speed="27.78" length="2.41" shape="8106.55,2721.07 8107.76,2720.19 8108.67,2720.10"/>
    </edge>
    <edge id=":166160596_22" function="internal">
        <lane id=":166160596_22_0" index="0" speed="27.78" length="9.40" shape="8110.30,2715.86 8111.44,2714.94 8114.96,2714.22 8119.21,2715.07"/>
    </edge>
    <edge id=":166160596_23" function="internal">
        <lane id=":166160596_23_0" index="0" speed="27.78" length="2.41" shape="8108.67,2720.10 8109.30,2720.77 8109.65,2722.22"/>
    </edge>
    <edge id=":166182629_0" function="internal">
        <lane id=":166182629_0_0" index="0" disallow="tram rail_urban rail rail_electric ship" speed="25.00" length="5.37" shape="8202.93,2489.11 8201.59,2488.94 8200.46,2489.28 8199.54,2490.16 8198.82,2491.55"/>
    </edge>
    <edge id=":166182629_1" function="internal">
        <lane id=":166182629_1_0" index="0" disallow="tram rail_urban rail rail_electric ship" speed="22.22" length="16.06" shape="8202.93,2489.11 8187.66,2484.14"/>
    </edge>
    <edge id=":166182629_2" function="internal">
        <lane id=":166182629_2_0" index="0" disallow="tram rail_urban rail rail_electric ship" speed="22.22" length="4.82" shape="8202.93,2489.11 8201.99,2487.96 8201.84,2487.05 8202.47,2486.38 8203.90,2485.96"/>
    </edge>
    <edge id=":166182629_3" function="internal">
        <lane id=":166182629_3_0" index="0" disallow="tram rail_urban rail rail_electric ship" speed="22.22" length="15.94" shape="8188.74,2481.02 8203.90,2485.96"/>
    </edge>
    <edge id=":166182629_4" function="internal">
        <lane id=":166182629_4_0" index="0" disallow="tram rail_urban rail rail_electric ship" speed="25.00" length="13.25" shape="8188.74,2481.02 8192.66,2482.81 8195.13,2484.97 8196.15,2487.50 8195.73,2490.41"/>
    </edge>
    <edge id=":166182629_5" function="internal">
        <lane id=":166182629_5_0" index="0" disallow="tram rail_urban rail rail_electric ship" speed="22.22" length="4.82" shape="8188.74,2481.02 8189.64,2482.21 8189.76,2483.12 8189.10,2483.77 8187.66,2484.14"/>
    </edge>
    <edge id=":166182629_6" function="internal">
        <lane id=":166182629_6_0" index="0" disallow="tram rail_urban rail rail_electric ship" speed="25.00" length="5.03" shape="8189.54,2488.11 8189.83,2486.76 8189.62,2485.65 8188.89,2484.77 8187.66,2484.14"/>
    </edge>
    <edge id=":166182629_7" function="internal">
        <lane id=":166182629_7_0" index="0" disallow="tram rail_urban rail rail_electric ship" speed="25.00" length="15.90" shape="8189.54,2488.11 8191.25,2485.77 8194.22,2484.63 8198.43,2484.69 8203.90,2485.96"/>
    </edge>
    <edge id=":166182629_8" function="internal">
        <lane id=":166182629_8_0" index="0" disallow="tram rail_urban rail rail_electric ship" speed="27.78" length="4.82" shape="8192.63,2489.26 8193.84,2488.38 8194.75,2488.28 8195.38,2488.96 8195.73,2490.41"/>
    </edge>
    <edge id=":166182741_0" function="internal">
        <lane id=":166182741_0_0" index="0" disallow="tram rail_urban rail rail_electric ship" speed="18.05" length="6.61" shape="8062.19,2440.93 8055.94,2438.76"/>
    </edge>
    <edge id=":166182741_1" function="internal">
        <lane id=":166182741_1_0" index="0" disallow="tram rail_urban rail rail_electric ship" speed="18.05" length="3.04" shape="8062.19,2440.93 8061.03,2440.10 8060.43,2438.59"/>
    </edge>
    <edge id=":166182741_2" function="internal">
        <lane id=":166182741_2_0" index="0" disallow="tram rail_urban rail rail_electric ship" speed="22.22" length="2.41" shape="8062.19,2440.93 8061.29,2439.75 8061.17,2438.83"/>
    </edge>
    <edge id=":166182741_9" function="internal">
        <lane id=":166182741_9_0" index="0" speed="18.05" length="5.08" shape="8060.43,2438.59 8060.38,2436.41 8060.89,2433.56"/>
    </edge>
    <edge id=":166182741_10" function="internal">
        <lane id=":166182741_10_0" index="0" speed="22.22" length="2.41" shape="8061.17,2438.83 8061.82,2438.19 8063.26,2437.81"/>
    </edge>
    <edge id=":166182741_3" function="internal">
        <lane id=":166182741_3_0" index="0" disallow="tram rail_urban rail rail_electric ship" speed="13.89" length="5.12" shape="8057.03,2435.65 8058.43,2435.92 8059.54,2435.66 8060.36,2434.87 8060.89,2433.56"/>
    </edge>
    <edge id=":166182741_4" function="internal">
        <lane id=":166182741_4_0" index="0" disallow="tram rail_urban rail rail_electric ship" speed="18.05" length="6.59" shape="8057.03,2435.65 8063.26,2437.81"/>
    </edge>
    <edge id=":166182741_5" function="internal">
        <lane id=":166182741_5_0" index="0" disallow="tram rail_urban rail rail_electric ship" speed="13.89" length="2.41" shape="8057.03,2435.65 8057.93,2436.83 8058.05,2437.75"/>
    </edge>
    <edge id=":166182741_11" function="internal">
        <lane id=":166182741_11_0" index="0" speed="13.89" length="2.41" shape="8058.05,2437.75 8057.39,2438.39 8055.94,2438.76"/>
    </edge>
    <edge id=":166182741_6" function="internal">
        <lane id=":166182741_6_0" index="0" disallow="tram rail_urban rail rail_electric ship" speed="13.89" length="5.37" shape="8058.27,2442.90 8058.48,2441.52 8058.16,2440.37 8057.32,2439.45 8055.94,2438.76"/>
    </edge>
    <edge id=":166182741_7" function="internal">
        <lane id=":166182741_7_0" index="0" disallow="tram rail_urban rail rail_electric ship" speed="13.89" length="9.70" shape="8058.27,2442.90 8060.89,2433.56"/>
    </edge>
    <edge id=":166182741_8" function="internal">
        <lane id=":166182741_8_0" index="0" disallow="tram rail_urban rail rail_electric ship" speed="18.05" length="7.91" shape="8058.27,2442.90 8059.31,2440.28 8060.49,2438.56 8061.81,2437.73 8063.26,2437.81"/>
    </edge>
    <edge id=":1701655938_0" function="internal">
        <lane id=":1701655938_0_0" index="0" disallow="tram rail_urban rail rail_electric ship" speed="27.78" length="6.12" shape="9511.88,2228.52 9505.73,2228.29"/>
        <lane id=":1701655938_0_1" index="1" disallow="tram rail_urban rail rail_electric ship" speed="27.78" length="6.12" shape="9511.95,2225.22 9505.89,2225.00"/>
    </edge>
    <edge id=":1701655938_2" function="internal">
        <lane id=":1701655938_2_0" index="0" disallow="tram rail_urban rail rail_electric ship" speed="20.84" length="5.07" shape="9508.57,2231.63 9508.52,2230.23 9508.03,2229.21 9507.10,2228.56 9505.73,2228.29"/>
    </edge>
    <edge id=":1701655941_0" function="internal">
        <lane id=":1701655941_0_0" index="0" disallow="tram rail_urban rail rail_electric ship" speed="13.89" length="6.26" shape="9250.84,2323.27 9244.60,2322.74"/>
    </edge>
    <edge id=":1701655941_1" function="internal">
        <lane id=":1701655941_1_0" index="0" disallow="tram rail_urban rail rail_electric ship" speed="18.05" length="5.05" shape="9250.84,2323.27 9249.47,2322.98 9248.55,2322.33 9248.07,2321.30 9248.02,2319.91"/>
    </edge>
    <edge id=":1701655941_2" function="internal">
        <lane id=":1701655941_2_0" index="0" disallow="tram rail_urban rail rail_electric ship" speed="18.05" length="5.00" shape="9247.42,2326.13 9247.34,2324.77 9246.84,2323.75 9245.93,2323.07 9244.60,2322.74"/>
    </edge>
    <edge id=":1701655941_3" function="internal">
        <lane id=":1701655941_3_0" index="0" disallow="tram rail_urban rail rail_electric ship" speed="22.22" length="6.25" shape="9247.42,2326.13 9248.02,2319.91"/>
    </edge>
    <edge id=":1701655942_0" function="internal">
        <lane id=":1701655942_0_0" index="0" disallow="tram rail_urban rail rail_electric ship" speed="22.22" length="6.20" shape="9387.43,2329.40 9386.88,2335.58"/>
    </edge>
    <edge id=":1701655942_1" function="internal">
        <lane id=":1701655942_1_0" index="0" disallow="tram rail_urban rail rail_electric ship" speed="18.05" length="5.03" shape="9387.43,2329.40 9387.12,2330.73 9386.45,2331.64 9385.42,2332.15 9384.03,2332.25"/>
    </edge>
    <edge id=":1701655944_0" function="internal">
        <lane id=":1701655944_0_0" index="0" disallow="tram rail_urban rail rail_electric ship" speed="18.05" length="5.02" shape="9246.54,2375.33 9245.19,2375.00 9244.27,2374.34 9243.76,2373.32 9243.68,2371.96"/>
    </edge>
    <edge id=":1701655944_1" function="internal">
        <lane id=":1701655944_1_0" index="0" disallow="tram rail_urban rail rail_electric ship" speed="22.22" length="6.20" shape="9243.17,2378.14 9243.68,2371.96"/>
    </edge>
    <edge id=":1701655946_0" function="internal">
        <lane id=":1701655946_0_0" index="0" disallow="tram rail_urban rail rail_electric ship" speed="22.22" length="5.65" shape="9382.45,2385.23 9381.95,2390.85"/>
    </edge>
    <edge id=":1701655946_1" function="internal">
        <lane id=":1701655946_1_0" index="0" disallow="tram rail_urban rail rail_electric ship" speed="18.05" length="5.01" shape="9382.45,2385.23 9382.14,2386.56 9381.47,2387.48 9380.45,2387.96 9379.08,2388.03"/>
    </edge>
    <edge id=":1701655950_0" function="internal">
        <lane id=":1701655950_0_0" index="0" disallow="tram rail_urban rail rail_electric ship" speed="22.22" length="6.20" shape="9488.75,2442.50 9482.57,2441.99"/>
    </edge>
    <edge id=":1701655950_1" function="internal">
        <lane id=":1701655950_1_0" index="0" disallow="tram rail_urban rail rail_electric ship" speed="18.05" length="3.01" shape="9488.75,2442.50 9487.39,2441.98 9486.51,2440.70"/>
    </edge>
    <edge id=":1701655950_2" function="internal">
        <lane id=":1701655950_2_0" index="0" disallow="tram rail_urban rail rail_electric ship" speed="22.22" length="2.41" shape="9488.75,2442.50 9487.59,2441.58 9487.24,2440.72"/>
    </edge>
    <edge id=":1701655950_6" function="internal">
        <lane id=":1701655950_6_0" index="0" speed="18.05" length="4.91" shape="9486.51,2440.70 9486.13,2438.65 9486.23,2435.83"/>
    </edge>
    <edge id=":1701655950_7" function="internal">
        <lane id=":1701655950_7_0" index="0" speed="22.22" length="2.41" shape="9487.24,2440.72 9487.72,2439.93 9489.02,2439.21"/>
    </edge>
    <edge id=":1701655950_3" function="internal">
        <lane id=":1701655950_3_0" index="0" disallow="tram rail_urban rail rail_electric ship" speed="18.05" length="5.04" shape="9482.84,2438.70 9484.20,2438.62 9485.21,2438.11 9485.89,2437.18 9486.23,2435.83"/>
    </edge>
    <edge id=":1701655950_4" function="internal">
        <lane id=":1701655950_4_0" index="0" disallow="tram rail_urban rail rail_electric ship" speed="22.22" length="6.20" shape="9482.84,2438.70 9489.02,2439.21"/>
    </edge>
    <edge id=":1701655950_5" function="internal">
        <lane id=":1701655950_5_0" index="0" disallow="tram rail_urban rail rail_electric ship" speed="22.22" length="2.41" shape="9482.84,2438.70 9484.01,2439.63 9484.35,2440.48"/>
    </edge>
    <edge id=":1701655950_8" function="internal">
        <lane id=":1701655950_8_0" index="0" speed="22.22" length="2.41" shape="9484.35,2440.48 9483.87,2441.27 9482.57,2441.99"/>
    </edge>
    <edge id=":1701655952_0" function="internal">
        <lane id=":1701655952_0_0" index="0" disallow="tram rail_urban rail rail_electric ship" speed="27.78" length="6.23" shape="9226.88,2614.89 9220.66,2614.30"/>
        <lane id=":1701655952_0_1" index="1" disallow="tram rail_urban rail rail_electric ship" speed="27.78" length="6.23" shape="9227.18,2611.61 9220.99,2611.02"/>
    </edge>
    <edge id=":1701655952_2" function="internal">
        <lane id=":1701655952_2_0" index="0" disallow="tram rail_urban rail rail_electric ship" speed="25.00" length="5.02" shape="9227.18,2611.61 9225.85,2611.29 9224.94,2610.62 9224.44,2609.59 9224.36,2608.21"/>
    </edge>
    <edge id=":1730748315_0" function="internal">
        <lane id=":1730748315_0_0" index="0" disallow="tram rail_urban rail rail_electric ship" speed="18.05" length="5.01" shape="9118.98,2309.76 9117.61,2309.81 9116.59,2310.29 9115.91,2311.20 9115.59,2312.53"/>
    </edge>
    <edge id=":1730748315_1" function="internal">
        <lane id=":1730748315_1_0" index="0" disallow="tram rail_urban rail rail_electric ship" speed="18.05" length="5.04" shape="9118.98,2309.76 9117.59,2309.46 9116.50,2308.89 9115.72,2308.04 9115.24,2306.91"/>
    </edge>
    <edge id=":1730748321_0" function="internal">
        <lane id=":1730748321_0_0" index="0" disallow="tram rail_urban rail rail_electric ship" speed="27.78" length="3.55" shape="9084.14,2523.13 9084.49,2522.21 9085.11,2521.72 9085.72,2521.22 9086.07,2520.30"/>
        <lane id=":1730748321_0_1" index="1" disallow="tram rail_urban rail rail_electric ship" speed="27.78" length="3.55" shape="9087.43,2523.44 9087.77,2522.52 9088.39,2522.03 9089.01,2521.54 9089.36,2520.62"/>
    </edge>
    <edge id=":1730748323_0" function="internal">
        <lane id=":1730748323_0_0" index="0" disallow="tram rail_urban rail rail_electric ship" speed="25.00" length="5.04" shape="9090.02,2601.42 9088.63,2601.49 9087.60,2601.98 9086.92,2602.89 9086.59,2604.22"/>
    </edge>
    <edge id=":1730748323_1" function="internal">
        <lane id=":1730748323_1_0" index="0" disallow="tram rail_urban rail rail_electric ship" speed="25.00" length="7.34" shape="9090.32,2598.14 9088.29,2598.47 9087.02,2599.49 9085.74,2600.49 9083.72,2600.77"/>
    </edge>
    <edge id=":1730748323_2" function="internal">
        <lane id=":1730748323_2_0" index="0" disallow="tram rail_urban rail rail_electric ship" speed="22.22" length="9.52" shape="9087.53,2594.75 9086.59,2604.22"/>
    </edge>
    <edge id=":1730748323_3" function="internal">
        <lane id=":1730748323_3_0" index="0" disallow="tram rail_urban rail rail_electric ship" speed="22.22" length="7.89" shape="9087.53,2594.75 9087.05,2597.52 9086.25,2599.45 9085.14,2600.53 9083.72,2600.77"/>
    </edge>
    <edge id=":1730748323_4" function="internal">
        <lane id=":1730748323_4_0" index="0" disallow="tram rail_urban rail rail_electric ship" speed="22.22" length="7.89" shape="9084.11,2597.49 9085.42,2598.05 9086.28,2599.36 9086.67,2601.41 9086.59,2604.22"/>
    </edge>
    <edge id=":1730748323_5" function="internal">
        <lane id=":1730748323_5_0" index="0" disallow="tram rail_urban rail rail_electric ship" speed="22.22" length="4.82" shape="9084.11,2597.49 9085.24,2598.46 9085.55,2599.32 9085.05,2600.10 9083.72,2600.77"/>
    </edge>
    <edge id=":1730748326_0" function="internal">
        <lane id=":1730748326_0_0" index="0" disallow="tram rail_urban rail rail_electric ship" speed="22.22" length="7.01" shape="9064.03,2720.79 9057.38,2718.57"/>
    </edge>
    <edge id=":1730748326_1" function="internal">
        <lane id=":1730748326_1_0" index="0" disallow="tram rail_urban rail rail_electric ship" speed="22.22" length="5.98" shape="9064.03,2720.79 9062.59,2720.08 9061.62,2719.08 9061.11,2717.79 9061.06,2716.20"/>
    </edge>
    <edge id=":1730748326_2" function="internal">
        <lane id=":1730748326_2_0" index="0" disallow="tram rail_urban rail rail_electric ship" speed="22.22" length="5.99" shape="9060.36,2723.17 9060.30,2721.57 9059.78,2720.27 9058.81,2719.27 9057.38,2718.57"/>
    </edge>
    <edge id=":1730748326_3" function="internal">
        <lane id=":1730748326_3_0" index="0" disallow="tram rail_urban rail rail_electric ship" speed="22.22" length="7.01" shape="9060.36,2723.17 9061.06,2716.20"/>
    </edge>
    <edge id=":1730748327_0" function="internal">
        <lane id=":1730748327_0_0" index="0" disallow="tram rail_urban rail rail_electric ship" speed="22.22" length="6.29" shape="9075.45,2720.99 9074.84,2727.25"/>
    </edge>
    <edge id=":1730748327_1" function="internal">
        <lane id=":1730748327_1_0" index="0" disallow="tram rail_urban rail rail_electric ship" speed="22.22" length="5.30" shape="9075.45,2720.99 9075.09,2722.45 9074.36,2723.34 9073.26,2723.65 9071.78,2723.38"/>
    </edge>
    <edge id=":1730748345_0" function="internal">
        <lane id=":1730748345_0_0" index="0" disallow="tram rail_urban rail rail_electric ship" speed="27.78" length="7.49" shape="8307.27,2771.56 8305.93,2771.67 8304.93,2772.18 8304.26,2773.08 8303.93,2774.38"/>
        <lane id=":1730748345_0_1" index="1" disallow="tram rail_urban rail rail_electric ship" speed="27.78" length="7.49" shape="8307.46,2768.26 8304.73,2768.49 8302.69,2769.53 8301.33,2771.37 8300.65,2774.02"/>
    </edge>
    <edge id=":1730748345_2" function="internal">
        <lane id=":1730748345_2_0" index="0" disallow="tram rail_urban rail rail_electric ship" speed="27.78" length="2.64" shape="8307.46,2768.26 8306.27,2767.37 8305.90,2766.52 8306.02,2766.32"/>
    </edge>
    <edge id=":1730748345_7" function="internal">
        <lane id=":1730748345_7_0" index="0" speed="27.78" length="2.18" shape="8306.02,2766.32 8306.36,2765.72 8307.64,2764.97"/>
    </edge>
    <edge id=":1730748345_3" function="internal">
        <lane id=":1730748345_3_0" index="0" disallow="tram rail_urban rail rail_electric ship" speed="27.78" length="4.49" shape="8303.89,2762.25 8307.83,2761.67"/>
        <lane id=":1730748345_3_1" index="1" disallow="tram rail_urban rail rail_electric ship" speed="27.78" length="4.49" shape="8303.89,2762.25 8304.35,2763.37 8305.12,2764.20 8306.22,2764.73 8307.64,2764.97"/>
    </edge>
    <edge id=":1730748345_5" function="internal">
        <lane id=":1730748345_5_0" index="0" disallow="tram rail_urban rail rail_electric ship" speed="27.78" length="11.69" shape="8303.89,2762.25 8304.57,2765.79 8304.67,2768.27 8304.40,2770.77 8303.93,2774.38"/>
        <lane id=":1730748345_5_1" index="1" disallow="tram rail_urban rail rail_electric ship" speed="27.78" length="11.69" shape="8300.68,2763.00 8301.28,2766.21 8301.36,2768.47 8301.08,2770.74 8300.65,2774.02"/>
    </edge>
    <edge id=":1730748365_0" function="internal">
        <lane id=":1730748365_0_0" index="0" disallow="tram rail_urban rail rail_electric ship" speed="20.84" length="5.23" shape="8616.87,2783.25 8616.87,2781.78 8617.35,2780.75 8618.32,2780.15 8619.79,2779.98"/>
    </edge>
    <edge id=":1730748365_1" function="internal">
        <lane id=":1730748365_1_0" index="0" disallow="tram rail_urban rail rail_electric ship" speed="27.78" length="6.31" shape="8613.55,2776.54 8619.89,2776.68"/>
        <lane id=":1730748365_1_1" index="1" disallow="tram rail_urban rail rail_electric ship" speed="27.78" length="6.31" shape="8613.51,2779.84 8619.79,2779.98"/>
    </edge>
    <edge id=":1730748369_0" function="internal">
        <lane id=":1730748369_0_0" index="0" disallow="tram rail_urban rail rail_electric ship" speed="20.84" length="5.52" shape="8262.73,2787.39 8261.39,2786.50 8260.25,2786.38 8259.29,2787.02 8258.52,2788.44"/>
    </edge>
    <edge id=":1730748369_1" function="internal">
        <lane id=":1730748369_1_0" index="0" disallow="tram rail_urban rail rail_electric ship" speed="27.78" length="6.43" shape="8262.73,2787.39 8261.16,2786.05 8260.09,2785.11 8259.17,2784.05 8258.04,2782.33"/>
        <lane id=":1730748369_1_1" index="1" disallow="tram rail_urban rail rail_electric ship" speed="27.78" length="6.43" shape="8264.93,2784.93 8260.87,2780.63"/>
    </edge>
    <edge id=":1730748373_0" function="internal">
        <lane id=":1730748373_0_0" index="0" disallow="tram rail_urban rail rail_electric ship" speed="25.00" length="5.43" shape="9050.61,2790.04 9052.12,2789.89 9053.25,2789.32 9053.98,2788.34 9054.33,2786.96"/>
    </edge>
    <edge id=":1730748373_1" function="internal">
        <lane id=":1730748373_1_0" index="0" disallow="tram rail_urban rail rail_electric ship" speed="27.78" length="6.62" shape="9050.61,2790.04 9057.23,2790.24"/>