<?xml version="1.0" encoding="UTF-8"?>

<!-- generated on 04/24/18 18:02:16 by SUMO polyconvert Version 0.25.0
<?xml version="1.0" encoding="UTF-8"?>

<configuration xmlns:xsi="http://www.w3.org/2001/XMLSchema-instance" xsi:noNamespaceSchemaLocation="http://sumo.dlr.de/xsd/polyconvertConfiguration.xsd">

    <input>
        <net-file value="amirkabirNew.net.xml"/>
        <osm-files value="map.osm"/>
        <type-file value="typemap.xml"/>
    </input>

    <output>
        <output-file value="amirkabirNew.poly.xml"/>
    </output>

    <processing>
        <poi-layer-offset value="5"/>
    </processing>

</configuration>
-->

<additional xmlns:xsi="http://www.w3.org/2001/XMLSchema-instance" xsi:noNamespaceSchemaLocation="http://sumo.dlr.de/xsd/additional_file.xsd">
    <location netOffset="-528230.99,-3947854.28" convBoundary="-2786.67,-5997.47,14121.07,14516.36" origBoundary="51.281494,35.619584,51.467675,35.804670" projParameter="+proj=utm +zone=39 +ellps=WGS84 +datum=WGS84 +units=m +no_defs"/>

    <poly id="118574371" type="building" color="255,230,230" fill="1" layer="-1.00" shape="7353.99,3272.08 7392.39,3286.59 7385.11,3305.66 7426.74,3321.39 7381.55,3439.85 7344.59,3425.87 7340.56,3436.43 7303.95,3422.60 7311.78,3402.07 7305.35,3399.65 7353.99,3272.08"/>
    <poly id="118574379" type="amenity" color="237,199,199" fill="1" layer="-1.00" shape="8475.62,2936.68 8469.39,2939.32 8462.70,2940.37 8455.96,2939.76 8449.56,2937.53 8443.91,2933.81 8439.35,2928.83 8436.13,2922.90 8434.48,2916.37 8434.47,2909.63 8436.12,2903.08 8439.32,2897.15 8443.88,2892.16 8449.52,2888.44 8455.19,2886.35 8461.18,2885.57 8467.20,2886.09 8472.95,2887.91 8478.17,2890.94 8482.61,2895.02 8486.04,2899.97 8488.31,2905.54 8489.29,2911.48 8488.95,2917.49 8487.31,2923.28 8484.44,2928.57 8480.48,2933.11 8475.62,2936.68"/>
    <poly id="118574379#1" type="building" color="255,230,230" fill="1" layer="-1.00" shape="8475.62,2936.68 8469.39,2939.32 8462.70,2940.37 8455.96,2939.76 8449.56,2937.53 8443.91,2933.81 8439.35,2928.83 8436.13,2922.90 8434.48,2916.37 8434.47,2909.63 8436.12,2903.08 8439.32,2897.15 8443.88,2892.16 8449.52,2888.44 8455.19,2886.35 8461.18,2885.57 8467.20,2886.09 8472.95,2887.91 8478.17,2890.94 8482.61,2895.02 8486.04,2899.97 8488.31,2905.54 8489.29,2911.48 8488.95,2917.49 8487.31,2923.28 8484.44,2928.57 8480.48,2933.11 8475.62,2936.68"/>
    <poly id="118574389" type="building" color="255,230,230" fill="1" layer="-1.00" shape="7632.67,3297.33 7665.62,3308.97 7675.51,3281.25 7642.56,3269.61 7645.79,3260.55 7671.55,3269.66 7676.42,3255.98 7610.15,3232.54 7605.53,3245.50 7632.67,3255.10 7614.56,3305.86 7588.79,3296.74 7583.92,3310.38 7649.97,3333.74 7654.75,3320.33 7627.86,3310.82 7632.67,3297.33"/>
    <poly id="118574393" type="amenity" color="237,199,199" fill="1" layer="-1.00" shape="7557.22,3296.87 7487.18,3273.54 7507.81,3213.09 7577.50,3236.41 7557.22,3296.87"/>
    <poly id="118574393#1" type="building" color="255,230,230" fill="1" layer="-1.00" shape="7557.22,3296.87 7487.18,3273.54 7507.81,3213.09 7577.50,3236.41 7557.22,3296.87"/>
    <poly id="118574396" type="building" color="255,230,230" fill="1" layer="-1.00" shape="7323.38,3136.67 7280.96,3122.36 7294.02,3083.97 7336.45,3098.28 7323.38,3136.67"/>
    <poly id="118574411" type="amenity" color="237,199,199" fill="1" layer="-1.00" shape="7328.44,3069.32 7300.60,3067.84 7303.16,3020.22 7331.00,3021.71 7328.44,3069.32"/>
    <poly id="118574411#1" type="building" color="255,230,230" fill="1" layer="-1.00" shape="7328.44,3069.32 7300.60,3067.84 7303.16,3020.22 7331.00,3021.71 7328.44,3069.32"/>
    <poly id="118574419" type="amenity" color="237,199,199" fill="1" layer="-1.00" shape="7359.17,3169.31 7351.41,3166.55 7349.30,3172.45 7344.91,3170.90 7346.91,3165.28 7287.94,3144.35 7293.04,3130.07 7364.06,3154.72 7359.17,3169.31"/>
    <poly id="118574419#1" type="building" color="255,230,230" fill="1" layer="-1.00" shape="7359.17,3169.31 7351.41,3166.55 7349.30,3172.45 7344.91,3170.90 7346.91,3165.28 7287.94,3144.35 7293.04,3130.07 7364.06,3154.72 7359.17,3169.31"/>
    <poly id="118574425" type="building" color="255,230,230" fill="1" layer="-1.00" shape="7447.87,3260.34 7378.69,3236.42 7405.42,3154.52 7477.50,3180.15 7472.36,3194.83 7458.57,3189.71 7453.18,3205.61 7443.02,3202.43 7435.92,3221.22 7447.29,3225.84 7441.41,3241.26 7452.78,3245.64 7447.87,3260.34"/>
    <poly id="118574431" type="amenity" color="237,199,199" fill="1" layer="-1.00" shape="7047.10,2961.18 7016.16,2954.43 7021.83,2928.74 7016.28,2927.53 7020.56,2908.15 7057.03,2916.11 7047.10,2961.18"/>
    <poly id="118574431#1" type="building" color="255,230,230" fill="1" layer="-1.00" shape="7047.10,2961.18 7016.16,2954.43 7021.83,2928.74 7016.28,2927.53 7020.56,2908.15 7057.03,2916.11 7047.10,2961.18"/>
    <poly id="136931048" type="leisure" color="207,245,201" fill="1" layer="-2.00" shape="10284.54,4259.27 10586.00,4144.71 10633.55,4126.66 10594.17,3907.82 10589.66,3905.05 10295.54,3964.97 10284.00,3981.83 10278.28,4138.52 10284.54,4259.27"/>
    <poly id="136931048#1" type="sport" color="79,230,125" fill="1" layer="-2.00" shape="10284.54,4259.27 10586.00,4144.71 10633.55,4126.66 10594.17,3907.82 10589.66,3905.05 10295.54,3964.97 10284.00,3981.83 10278.28,4138.52 10284.54,4259.27"/>
    <poly id="13854334" type="water" color="181,209,209" fill="1" layer="-4.00" shape="7257.65,4008.12 7248.14,4013.22 7240.89,4021.15 7236.67,4031.04 7235.98,4041.76 7238.90,4052.10 7244.76,4060.55 7253.02,4066.72 7262.82,4069.96 7273.14,4069.94 7282.92,4066.65 7291.15,4060.45 7296.97,4051.96 7299.80,4042.08 7299.32,4031.81 7295.35,4021.82 7288.28,4013.71 7278.91,4008.38 7268.30,4006.44 7257.65,4008.12"/>
    <poly id="15885479" type="amenity" color="237,199,199" fill="1" layer="-1.00" shape="9057.56,3557.32 9069.41,3416.22 9081.28,3274.88 9033.71,3277.57 9022.59,3382.86 8920.79,3371.15 8923.16,3336.99 8897.01,3334.35 8864.64,3331.09 8830.15,3327.62 8813.04,3325.77 8673.12,3310.63 8489.98,3290.82 8490.72,3325.05 8491.51,3361.30 8495.14,3362.55 9057.56,3557.32"/>
    <poly id="161072034" type="tourism" color="207,245,201" fill="1" layer="-2.00" shape="8942.66,4653.43 8899.35,4641.52 8894.23,4638.66 8892.35,4632.40 8916.41,4381.87 8919.08,4379.04 8924.22,4380.00 8972.65,4437.19 8973.21,4444.57 8972.59,4451.96 8943.32,4630.16 8942.66,4653.43"/>
    <poly id="161072035" type="tourism" color="207,245,201" fill="1" layer="-2.00" shape="9398.19,4664.68 9261.85,4667.89 9267.46,4600.52 9400.16,4603.36 9398.19,4664.68"/>
    <poly id="161072038" type="amenity" color="237,199,199" fill="1" layer="-1.00" shape="8777.34,4000.81 8787.43,3869.64 8926.66,3880.25 8916.56,4011.43 8777.34,4000.81"/>
    <poly id="161072043" type="tourism" color="207,245,201" fill="1" layer="-2.00" shape="9724.15,4120.63 9882.75,4126.48 9885.28,4058.37 9987.83,4062.16 9993.90,3898.92 9737.12,3889.28 9724.15,4120.63"/>
    <poly id="161072046" type="tourism" color="207,245,201" fill="1" layer="-2.00" shape="9140.96,4685.35 8958.35,4689.92 8958.40,4678.69 9020.26,4677.34 9131.19,4642.20 9139.98,4670.96 9140.96,4685.35"/>
    <poly id="161072048" type="tourism" color="207,245,201" fill="1" layer="-2.00" shape="9199.67,4647.76 9201.21,4601.39 9243.60,4601.76 9249.29,4605.57 9251.56,4609.56 9250.82,4648.55 9199.67,4647.76"/>
    <poly id="161072303" type="leisure" color="207,245,201" fill="1" layer="-2.00" shape="10451.03,4061.70 10467.26,4145.82 10466.68,4152.86 10464.42,4159.56 10395.15,4171.12 10391.04,4166.52 10388.64,4160.86 10372.41,4076.74 10372.07,4069.80 10373.88,4063.09 10442.24,4047.92 10447.80,4054.07 10451.03,4061.70"/>
    <poly id="161072303#1" type="sport" color="79,230,125" fill="1" layer="-2.00" shape="10451.03,4061.70 10467.26,4145.82 10466.68,4152.86 10464.42,4159.56 10395.15,4171.12 10391.04,4166.52 10388.64,4160.86 10372.41,4076.74 10372.07,4069.80 10373.88,4063.09 10442.24,4047.92 10447.80,4054.07 10451.03,4061.70"/>
    <poly id="161174514" type="shop" color="237,199,255" fill="1" layer="-1.00" shape="10589.35,3286.03 10555.05,3291.32 10540.41,3197.29 10574.72,3192.01 10589.35,3286.03"/>
    <poly id="181526863" type="landuse" color="194,194,130" fill="1" layer="-3.00" shape="9136.51,3070.28 9184.33,3073.66 9182.36,3081.47 9182.47,3087.99 9180.91,3097.26 9179.00,3120.71 9155.71,3118.68 9151.70,3149.59 9126.49,3144.65 9136.51,3070.28"/>
    <poly id="181526865" type="amenity" color="237,199,199" fill="1" layer="-1.00" shape="8621.56,3194.70 8723.42,3197.46 8724.10,3091.07 8724.08,3084.26 8675.88,3081.92 8632.62,3079.82 8621.56,3194.70"/>
    <poly id="181526866" type="landuse" color="194,194,130" fill="1" layer="-3.00" shape="8740.54,3059.93 9101.57,3067.24 9099.51,3098.15 8958.78,3095.63 8957.79,3087.32 8886.99,3086.64 8885.00,3098.22 8805.40,3098.85 8805.29,3125.91 8780.06,3126.77 8777.10,3192.54 8739.72,3192.88 8740.54,3059.93"/>
    <poly id="181526867" type="commercial" color="209,209,204" fill="1" layer="-3.00" shape="9258.46,3125.68 9261.65,3073.14 9317.94,3075.30 9315.54,3127.52 9258.46,3125.68"/>
    <poly id="181727616" type="amenity" color="237,199,199" fill="1" layer="-1.00" shape="7512.64,3196.21 7588.53,3222.95 7625.73,3118.31 7549.85,3091.56 7512.64,3196.21"/>
    <poly id="181727616#1" type="building" color="255,230,230" fill="1" layer="-1.00" shape="7512.64,3196.21 7588.53,3222.95 7625.73,3118.31 7549.85,3091.56 7512.64,3196.21"/>
    <poly id="182089338" type="landuse" color="194,194,130" fill="1" layer="-3.00" shape="8613.66,5154.82 8703.48,5146.59 8657.05,4804.37 8643.05,4797.74 8615.33,4802.26 8637.33,5008.33 8646.73,5080.83 8650.91,5113.50 8645.03,5128.93 8610.07,5132.65 8613.66,5154.82"/>
    <poly id="182089341" type="amenity" color="237,199,199" fill="1" layer="-1.00" shape="8339.72,5032.56 8373.96,4984.16 8389.56,5008.40 8385.34,5015.17 8391.18,5027.04 8359.14,5047.62 8339.72,5032.56"/>
    <poly id="182089346" type="landuse" color="194,194,130" fill="1" layer="-3.00" shape="8538.85,5120.96 8613.66,5154.82 8610.07,5132.65 8562.20,5106.56 8535.02,5108.39 8538.85,5120.96"/>
    <poly id="183425240" type="landuse" color="194,194,130" fill="1" layer="-3.00" shape="8376.68,2566.48 8415.51,2565.68 8449.59,2775.52 8458.14,2818.07 8409.60,2822.70 8376.68,2566.48"/>
    <poly id="183425241" type="landuse" color="194,194,130" fill="1" layer="-3.00" shape="8331.17,3009.84 8382.80,3012.14 8382.90,3002.42 8398.74,3001.80 8375.70,2805.17 8348.27,2570.37 8327.33,2408.98 8147.23,2421.54 8153.84,2465.06 8176.17,2463.22 8182.85,2491.27 8271.98,2474.38 8283.45,2575.76 8272.76,2579.57 8298.20,2768.13 8318.86,2935.39 8331.17,3009.84"/>
    <poly id="187937526" type="landuse" color="194,194,130" fill="1" layer="-3.00" shape="6591.80,2998.11 6607.82,2998.46 6623.72,3027.21 6642.15,3028.25 6660.71,2999.34 6858.71,3003.02 6885.35,3015.01 6894.60,3005.09 7006.21,3011.33 7035.32,3010.48 7135.15,3048.57 7137.04,3060.16 7112.46,3261.35 7077.38,3252.50 7084.11,3190.41 7111.75,3074.56 7082.65,3068.64 7022.51,3058.74 6966.24,3054.66 6880.87,3041.76 6853.70,3039.72 6844.47,3062.61 6829.35,3061.85 6808.04,3051.13 6647.90,3047.60 6583.83,3050.25 6591.80,2998.11"/>
    <poly id="187937530" type="water" color="181,209,209" fill="1" layer="-4.00" shape="7134.21,2999.46 7136.14,3005.25 7139.51,3010.34 7144.08,3014.40 7149.56,3017.13 7155.56,3018.37 7161.68,3018.00 7167.49,3016.09 7172.61,3012.73 7176.68,3008.18 7179.43,3002.72 7180.66,2996.75 7180.31,2990.66 7178.38,2984.87 7175.00,2979.78 7170.43,2975.73 7164.95,2972.99 7158.95,2971.75 7152.83,2972.12 7147.03,2974.04 7141.90,2977.39 7137.83,2981.94 7135.09,2987.40 7133.85,2993.37 7134.21,2999.46"/>
    <poly id="191430303" type="amenity" color="237,199,199" fill="1" layer="-1.00" shape="8236.06,4177.92 8264.40,4101.06 8206.01,4079.64 8176.49,4157.87 8236.06,4177.92"/>
    <poly id="191432632" type="building" color="255,230,230" fill="1" layer="-1.00" shape="7761.95,4000.46 7766.00,4001.84 7768.27,3995.23 7771.94,3996.49 7773.84,3990.99 7770.49,3989.84 7772.91,3982.80 7716.03,3963.39 7713.81,3969.83 7709.79,3968.46 7707.58,3974.87 7711.36,3976.15 7709.19,3982.45 7713.91,3984.06 7710.48,3994.73 7758.29,4010.98 7761.95,4000.46"/>
    <poly id="199127181" type="leisure" color="207,245,201" fill="1" layer="-2.00" shape="9083.61,4774.96 9108.44,4774.78 9108.11,4730.31 9083.28,4730.50 9083.61,4774.96"/>
    <poly id="199127219" type="leisure" color="207,245,201" fill="1" layer="-2.00" shape="8964.52,4793.04 8977.33,4804.69 9129.45,4804.60 9126.47,4703.39 8963.17,4710.67 8964.52,4793.04"/>
    <poly id="202509571" type="amenity" color="237,199,199" fill="1" layer="-1.00" shape="6917.82,5429.96 6921.44,5281.77 6915.49,5276.07 6803.13,5347.57 6796.40,5445.68 6844.24,5438.09 6871.55,5435.54 6912.10,5433.33 6917.82,5429.96"/>
    <poly id="202530201" type="building" color="255,230,230" fill="1" layer="-1.00" shape="7605.97,3523.87 7528.62,3496.41 7571.61,3377.82 7651.09,3405.20 7605.97,3523.87"/>
    <poly id="203040486" type="water" color="181,209,209" fill="0" layer="-4.00" shape="8510.56,4160.02 8372.58,4112.03 8264.04,4072.21 8156.72,4033.61 8026.37,3988.14 7878.58,3936.09 7743.63,3888.44 7613.88,3843.54 7529.80,3814.21 7507.27,3805.91 7497.58,3802.49 7452.27,3785.88 7344.13,3748.00 7309.07,3736.50 7262.28,3730.04 7227.58,3727.48 7207.44,3729.10 7177.46,3733.00 7175.88,3733.56 7095.23,3756.19"/>
    <poly id="206921883" type="military" color="153,153,92" fill="1" layer="-3.00" shape="11404.84,3714.00 11403.87,3931.12 11569.81,4584.05 11600.41,4858.01 11958.89,4602.23 12088.17,4555.46 11957.66,4230.47 11902.84,4118.15 11810.31,3978.59 11645.41,3742.14 11614.50,3708.18 11591.28,3692.33 11558.33,3682.81 11532.13,3680.75 11504.94,3684.50 11404.84,3714.00"/>
    <poly id="208005664" type="building" color="255,230,230" fill="1" layer="-1.00" shape="8679.17,3339.13 8721.85,3344.38 8730.81,3348.28 8731.28,3351.18 8736.14,3351.68 8738.18,3325.36 8680.94,3319.57 8679.17,3339.13"/>
    <poly id="208005786" type="building" color="255,230,230" fill="1" layer="-1.00" shape="8647.70,3378.37 8633.17,3371.07 8632.25,3359.47 8511.09,3319.35 8505.68,3336.72 8490.66,3330.86 8495.14,3362.55 8641.75,3410.72 8650.52,3400.61 8651.04,3393.37 8647.70,3378.37"/>
    <poly id="210337711" type="building" color="255,230,230" fill="1" layer="-1.00" shape="9356.74,4572.25 9357.59,4535.71 9399.77,4536.68 9398.92,4573.23 9356.74,4572.25"/>
    <poly id="211926825" type="building" color="255,230,230" fill="1" layer="-1.00" shape="9680.66,4083.79 9679.65,4098.54 9634.29,4095.69 9638.38,4047.39 9683.02,4049.28 9682.07,4063.01 9686.46,4063.31 9686.08,4068.82 9688.02,4071.25 9688.81,4074.46 9687.63,4077.51 9685.33,4079.92 9685.04,4084.09 9680.66,4083.79"/>
    <poly id="211927362" type="building" color="255,230,230" fill="1" layer="-1.00" shape="10338.41,4231.19 10342.32,4231.03 10340.78,4195.03 10333.77,4189.69 10332.22,4153.93 10286.36,4156.14 10290.02,4206.89 10294.85,4206.58 10297.60,4247.74 10307.22,4247.10 10311.41,4243.69 10319.40,4243.17 10322.60,4239.64 10332.55,4238.98 10338.41,4231.19"/>
    <poly id="211927363" type="building" color="255,230,230" fill="1" layer="-1.00" shape="10102.42,4149.02 10019.89,4148.11 10019.68,4165.85 10102.22,4166.76 10102.42,4149.02"/>
    <poly id="211927364" type="building" color="255,230,230" fill="1" layer="-1.00" shape="10147.67,4150.60 10230.76,4150.67 10230.75,4169.27 10147.65,4169.19 10147.67,4150.60"/>
    <poly id="225560361" type="building" color="255,230,230" fill="1" layer="-1.00" shape="8270.64,2965.68 8275.54,2967.58 8273.66,3010.08 8263.91,3009.85 8263.98,2993.14 8264.08,2967.83 8270.64,2965.68"/>
    <poly id="235735934" type="building" color="255,230,230" fill="1" layer="-1.00" shape="8366.67,5165.51 8365.54,5205.84 8376.93,5206.85 8377.58,5190.93 8378.55,5167.24 8373.22,5166.01 8366.67,5165.51"/>
    <poly id="235963270" type="amenity" color="237,199,199" fill="1" layer="-1.00" shape="8530.58,4139.29 8547.87,4132.67 8556.46,4116.10 8530.42,4108.71 8517.40,4135.14 8530.58,4139.29"/>
    <poly id="235963270#1" type="building" color="255,230,230" fill="1" layer="-1.00" shape="8530.58,4139.29 8547.87,4132.67 8556.46,4116.10 8530.42,4108.71 8517.40,4135.14 8530.58,4139.29"/>
    <poly id="235963422" type="amenity" color="237,199,199" fill="1" layer="-1.00" shape="7902.73,4005.06 7906.83,4001.79 7912.61,4004.00 7917.50,4005.86 7919.41,4009.86 7916.25,4020.17 7932.22,4019.24 7924.49,4037.94 7908.82,4037.85 7907.51,4041.92 7923.60,4047.42 7917.37,4064.97 7902.74,4059.84 7890.10,4055.41 7867.66,4047.54 7874.38,4029.28 7876.39,4029.88 7877.11,4027.87 7880.66,4029.42 7881.73,4027.54 7890.78,4031.71 7878.23,4020.81 7884.56,4002.28 7898.85,4014.51 7902.73,4005.06"/>
    <poly id="235963422#1" type="building" color="255,230,230" fill="1" layer="-1.00" shape="7902.73,4005.06 7906.83,4001.79 7912.61,4004.00 7917.50,4005.86 7919.41,4009.86 7916.25,4020.17 7932.22,4019.24 7924.49,4037.94 7908.82,4037.85 7907.51,4041.92 7923.60,4047.42 7917.37,4064.97 7902.74,4059.84 7890.10,4055.41 7867.66,4047.54 7874.38,4029.28 7876.39,4029.88 7877.11,4027.87 7880.66,4029.42 7881.73,4027.54 7890.78,4031.71 7878.23,4020.81 7884.56,4002.28 7898.85,4014.51 7902.73,4005.06"/>
    <poly id="272255402" type="building" color="255,230,230" fill="1" layer="-1.00" shape="9509.47,3559.86 9455.38,3557.09 9454.26,3593.56 9454.07,3607.45 9467.72,3608.55 9477.96,3609.37 9478.37,3601.64 9480.80,3599.60 9481.07,3594.40 9505.44,3596.92 9507.52,3591.13 9508.12,3565.53 9509.47,3559.86"/>
    <poly id="281565608" type="building" color="255,230,230" fill="1" layer="-1.00" shape="7714.88,3104.91 7720.23,3091.05 7686.95,3078.32 7681.60,3092.17 7714.88,3104.91"/>
    <poly id="281565609" type="building" color="255,230,230" fill="1" layer="-1.00" shape="7724.99,3075.43 7730.24,3061.44 7698.36,3049.56 7693.10,3063.56 7724.99,3075.43"/>
    <poly id="281565610" type="amenity" color="237,199,199" fill="1" layer="-1.00" shape="7787.24,3034.35 7716.15,3243.87 7612.96,3205.50 7677.60,3030.79 7787.24,3034.35"/>
    <poly id="281565611" type="building" color="255,230,230" fill="1" layer="-1.00" shape="7686.22,3177.15 7692.47,3179.23 7709.94,3185.41 7721.81,3189.70 7732.34,3159.25 7729.75,3158.08 7716.26,3153.28 7704.27,3148.68 7697.95,3146.26 7692.23,3161.32 7686.22,3177.15"/>
    <poly id="281565612" type="building" color="255,230,230" fill="1" layer="-1.00" shape="7683.73,3189.26 7655.21,3178.67 7655.71,3177.33 7643.47,3172.77 7642.24,3176.03 7640.72,3175.46 7634.92,3190.88 7638.35,3192.16 7636.82,3196.25 7675.53,3210.68 7678.03,3205.37 7682.22,3193.95 7683.73,3189.26"/>
    <poly id="281565613" type="building" color="255,230,230" fill="1" layer="-1.00" shape="7718.90,3220.26 7723.11,3208.80 7716.28,3206.31 7708.76,3203.60 7704.06,3201.90 7684.01,3194.60 7682.22,3193.95 7678.03,3205.37 7718.90,3220.26"/>
    <poly id="281565614" type="building" color="255,230,230" fill="1" layer="-1.00" shape="7716.28,3206.31 7721.81,3189.70 7709.94,3185.41 7704.80,3199.83 7704.49,3200.69 7704.06,3201.90 7708.76,3203.60 7716.28,3206.31"/>
    <poly id="281565615" type="building" color="255,230,230" fill="1" layer="-1.00" shape="7729.75,3158.08 7736.32,3139.79 7722.83,3134.98 7721.16,3140.88 7716.26,3153.28 7729.75,3158.08"/>
    <poly id="281565616" type="building" color="255,230,230" fill="1" layer="-1.00" shape="7703.06,3135.88 7708.26,3122.46 7674.94,3109.69 7669.74,3123.12 7703.06,3135.88"/>
    <poly id="281565617" type="building" color="255,230,230" fill="1" layer="-1.00" shape="7714.48,3118.16 7718.45,3107.99 7745.78,3118.57 7741.81,3128.74 7714.48,3118.16"/>
    <poly id="281565618" type="building" color="255,230,230" fill="1" layer="-1.00" shape="7748.24,3113.26 7762.59,3074.85 7737.94,3065.73 7723.59,3104.13 7748.24,3113.26"/>
    <poly id="281565619" type="amenity" color="237,199,199" fill="1" layer="-1.00" shape="7763.18,3653.08 7733.73,3642.04 7743.45,3613.39 7773.93,3624.55 7763.18,3653.08"/>
    <poly id="283556189" type="building" color="255,230,230" fill="1" layer="-1.00" shape="10935.18,3563.61 10895.65,3573.21 10891.53,3552.41 10924.27,3545.34 10935.18,3563.61"/>
    <poly id="289022775" type="amenity" color="237,199,199" fill="1" layer="-1.00" shape="7729.59,3259.16 7734.52,3256.34 7761.40,3266.02 7743.43,3313.99 7737.31,3330.36 7707.06,3319.53 7712.81,3304.11 7729.59,3259.16"/>
    <poly id="289503269" type="parking" color="184,184,179" fill="1" layer="-1.00" shape="8603.76,4772.48 8614.83,4737.67 8565.98,4726.03 8554.80,4763.10 8603.76,4772.48"/>
    <poly id="289503270" type="amenity" color="237,199,199" fill="1" layer="-1.00" shape="8634.83,4685.61 8637.96,4708.20 8574.99,4687.96 8580.53,4671.69 8583.78,4672.78 8585.22,4668.56 8634.83,4685.61"/>
    <poly id="289503270#1" type="building" color="255,230,230" fill="1" layer="-1.00" shape="8634.83,4685.61 8637.96,4708.20 8574.99,4687.96 8580.53,4671.69 8583.78,4672.78 8585.22,4668.56 8634.83,4685.61"/>
    <poly id="289700888" type="parking" color="184,184,179" fill="1" layer="-1.00" shape="8582.28,4634.87 8599.34,4640.66 8589.39,4659.54 8575.43,4654.34 8582.28,4634.87"/>
    <poly id="289701276" type="building" color="255,230,230" fill="1" layer="-1.00" shape="8571.24,4659.88 8558.46,4688.87 8544.27,4682.86 8557.53,4655.34 8571.24,4659.88"/>
    <poly id="308252513" type="amenity" color="237,199,199" fill="1" layer="-1.00" shape="10649.37,3878.58 10513.26,3905.40 10481.45,3743.05 10487.04,3741.39 10480.39,3708.76 10540.31,3710.58 10541.10,3697.06 10615.70,3701.37 10649.37,3878.58"/>
    <poly id="308253921" type="building" color="255,230,230" fill="1" layer="-1.00" shape="10440.56,3569.50 10449.60,3604.77 10416.09,3613.28 10407.06,3578.01 10440.56,3569.50"/>
    <poly id="308253921#1" type="building" color="255,230,230" fill="1" layer="-1.00" shape="10440.56,3569.50 10449.60,3604.77 10416.09,3613.28 10407.06,3578.01 10440.56,3569.50"/>
    <poly id="308258879" type="building" color="255,230,230" fill="1" layer="-1.00" shape="9591.48,3496.27 9629.56,3499.57 9622.01,3562.11 9568.42,3556.33 9571.43,3532.90 9587.46,3533.45 9591.48,3496.27"/>
    <poly id="309368009" type="amenity" color="237,199,199" fill="1" layer="-1.00" shape="11448.92,3189.37 11444.21,3171.04 11413.59,3180.65 11428.30,3198.43 11448.92,3189.37"/>
    <poly id="309368009#1" type="building" color="255,230,230" fill="1" layer="-1.00" shape="11448.92,3189.37 11444.21,3171.04 11413.59,3180.65 11428.30,3198.43 11448.92,3189.37"/>
    <poly id="316588004" type="amenity" color="237,199,199" fill="1" layer="-1.00" shape="8589.27,4358.02 8592.06,4384.75 8590.47,4386.29 8574.16,4380.58 8583.05,4355.42 8589.27,4358.02"/>
    <poly id="316588004#1" type="building" color="255,230,230" fill="1" layer="-1.00" shape="8589.27,4358.02 8592.06,4384.75 8590.47,4386.29 8574.16,4380.58 8583.05,4355.42 8589.27,4358.02"/>
    <poly id="316588012" type="building" color="255,230,230" fill="1" layer="-1.00" shape="8533.07,4230.03 8529.27,4231.21 8525.28,4231.04 8521.58,4229.56 8518.60,4226.92 8516.68,4223.43 8516.05,4219.51 8523.94,4200.22 8514.48,4196.39 8506.60,4215.68 8506.56,4223.03 8509.03,4229.96 8513.71,4235.64 8520.05,4239.40 8527.30,4240.80 8534.60,4239.66 8534.50,4243.16 8548.87,4242.34 8546.79,4231.36 8541.78,4221.36 8534.23,4213.11 8524.69,4207.23 8521.13,4216.84 8527.65,4221.35 8532.35,4227.72 8533.07,4230.03"/>
    <poly id="330340074" type="amenity" color="237,199,199" fill="1" layer="-1.00" shape="8978.99,2808.03 8986.34,2853.48 8995.56,2851.82 9001.71,2894.75 8931.94,2904.86 8918.44,2817.95 8978.99,2808.03"/>
    <poly id="330340074#1" type="building" color="255,230,230" fill="1" layer="-1.00" shape="8978.99,2808.03 8986.34,2853.48 8995.56,2851.82 9001.71,2894.75 8931.94,2904.86 8918.44,2817.95 8978.99,2808.03"/>
    <poly id="330549208" type="building" color="255,230,230" fill="1" layer="-1.00" shape="7331.57,4565.99 7347.54,4573.28 7421.32,4606.90 7427.51,4593.45 7439.31,4567.79 7349.55,4526.87 7331.57,4565.99"/>
    <poly id="330549208#1" type="tourism" color="207,245,201" fill="1" layer="-2.00" shape="7331.57,4565.99 7347.54,4573.28 7421.32,4606.90 7427.51,4593.45 7439.31,4567.79 7349.55,4526.87 7331.57,4565.99"/>
    <poly id="333246023" type="landuse" color="194,194,130" fill="1" layer="-3.00" shape="7087.16,3737.54 7080.87,3791.21 7051.61,3790.47 7048.93,3742.09 7087.16,3737.54"/>
    <poly id="335882984" type="amenity" color="237,199,199" fill="1" layer="-1.00" shape="8697.56,4862.90 8699.06,4851.99 8728.48,4855.99 8726.99,4866.89 8697.56,4862.90"/>
    <poly id="335882984#1" type="building" color="255,230,230" fill="1" layer="-1.00" shape="8697.56,4862.90 8699.06,4851.99 8728.48,4855.99 8726.99,4866.89 8697.56,4862.90"/>
    <poly id="338486827" type="building" color="255,230,230" fill="1" layer="-1.00" shape="7007.49,4197.82 7009.21,4180.95 7008.85,4178.96 7007.89,4177.51 7006.17,4176.47 6966.23,4171.95 6962.18,4192.60 7007.49,4197.82"/>
    <poly id="338486827#1" type="shop" color="237,199,255" fill="1" layer="-1.00" shape="7007.49,4197.82 7009.21,4180.95 7008.85,4178.96 7007.89,4177.51 7006.17,4176.47 6966.23,4171.95 6962.18,4192.60 7007.49,4197.82"/>
    <poly id="36332739" type="amenity" color="237,199,199" fill="1" layer="-1.00" shape="6775.45,5169.40 6787.51,5113.05 6890.56,5134.87 6881.82,5181.22 6874.03,5180.17 6870.28,5200.30 6861.17,5204.96 6848.53,5202.33 6844.79,5217.43 6837.61,5222.53 6822.17,5218.58 6816.99,5210.64 6820.19,5196.51 6804.81,5193.24 6800.16,5185.28 6802.57,5175.17 6775.45,5169.40"/>
    <poly id="36332739#1" type="building" color="255,230,230" fill="1" layer="-1.00" shape="6775.45,5169.40 6787.51,5113.05 6890.56,5134.87 6881.82,5181.22 6874.03,5180.17 6870.28,5200.30 6861.17,5204.96 6848.53,5202.33 6844.79,5217.43 6837.61,5222.53 6822.17,5218.58 6816.99,5210.64 6820.19,5196.51 6804.81,5193.24 6800.16,5185.28 6802.57,5175.17 6775.45,5169.40"/>
    <poly id="374274854" type="landuse" color="194,194,130" fill="1" layer="-3.00" shape="7017.54,4355.78 7123.27,4367.24 7111.98,4331.71 7104.38,4299.88 7105.15,4273.11 7028.12,4263.42 7017.54,4355.78"/>
    <poly id="374274855" type="leisure" color="207,245,201" fill="1" layer="-2.00" shape="6905.87,4127.58 6929.66,4128.21 6930.57,4094.03 6930.76,4087.01 6906.96,4086.38 6905.87,4127.58"/>
    <poly id="374274855#1" type="sport" color="79,230,125" fill="1" layer="-2.00" shape="6905.87,4127.58 6929.66,4128.21 6930.57,4094.03 6930.76,4087.01 6906.96,4086.38 6905.87,4127.58"/>
    <poly id="374274856" type="leisure" color="207,245,201" fill="1" layer="-2.00" shape="6929.66,4128.21 6963.93,4129.10 6964.68,4094.77 6930.57,4094.03 6929.66,4128.21"/>
    <poly id="374274856#1" type="sport" color="79,230,125" fill="1" layer="-2.00" shape="6929.66,4128.21 6963.93,4129.10 6964.68,4094.77 6930.57,4094.03 6929.66,4128.21"/>
    <poly id="375095041" type="building" color="255,230,230" fill="1" layer="-1.00" shape="8086.48,3975.12 8090.24,3964.54 8085.26,3962.77 8087.01,3957.84 8092.11,3959.63 8097.00,3945.86 8062.50,3933.72 8052.10,3963.03 8065.16,3967.62 8070.10,3969.36 8074.82,3971.02 8086.48,3975.12"/>
    <poly id="375095041#1" type="tourism" color="207,245,201" fill="1" layer="-2.00" shape="8086.48,3975.12 8090.24,3964.54 8085.26,3962.77 8087.01,3957.84 8092.11,3959.63 8097.00,3945.86 8062.50,3933.72 8052.10,3963.03 8065.16,3967.62 8070.10,3969.36 8074.82,3971.02 8086.48,3975.12"/>
    <poly id="375095043" type="building" color="255,230,230" fill="1" layer="-1.00" shape="8097.00,3945.86 8103.88,3926.48 8069.38,3914.34 8062.50,3933.72 8097.00,3945.86"/>
    <poly id="375095048" type="building" color="255,230,230" fill="1" layer="-1.00" shape="8065.16,3967.62 8062.65,3974.72 8072.30,3978.12 8074.82,3971.02 8070.10,3969.36 8065.16,3967.62"/>
    <poly id="375095049" type="building" color="255,230,230" fill="1" layer="-1.00" shape="7627.67,4095.54 7633.40,4076.18 7655.85,4084.95 7649.16,4103.02 7627.67,4095.54"/>
    <poly id="375095049#1" type="tourism" color="207,245,201" fill="1" layer="-2.00" shape="7627.67,4095.54 7633.40,4076.18 7655.85,4084.95 7649.16,4103.02 7627.67,4095.54"/>
    <poly id="378648045" type="amenity" color="237,199,199" fill="1" layer="-1.00" shape="8015.81,3040.69 8004.16,3040.59 8004.03,3055.68 8015.68,3055.79 8015.81,3040.69"/>
    <poly id="378648045#1" type="building" color="255,230,230" fill="1" layer="-1.00" shape="8015.81,3040.69 8004.16,3040.59 8004.03,3055.68 8015.68,3055.79 8015.81,3040.69"/>
    <poly id="385256421" type="amenity" color="237,199,199" fill="1" layer="-1.00" shape="7500.40,3391.59 7469.73,3380.19 7476.00,3363.48 7488.94,3357.72 7480.09,3338.01 7510.36,3324.53 7533.81,3376.72 7500.40,3391.59"/>
    <poly id="385256421#1" type="building" color="255,230,230" fill="1" layer="-1.00" shape="7500.40,3391.59 7469.73,3380.19 7476.00,3363.48 7488.94,3357.72 7480.09,3338.01 7510.36,3324.53 7533.81,3376.72 7500.40,3391.59"/>
    <poly id="385256431" type="water" color="181,209,209" fill="1" layer="-4.00" shape="7468.80,3418.00 7479.31,3422.01 7487.77,3399.95 7477.25,3395.96 7468.80,3418.00"/>
    <poly id="385256433" type="amenity" color="237,199,199" fill="1" layer="-1.00" shape="7443.57,3023.67 7594.61,3027.09 7588.18,3040.33 7625.97,3053.55 7635.51,3028.95 7677.60,3030.79 7787.24,3034.35 7716.15,3243.87 7569.86,3675.09 7235.73,3560.65 7443.57,3023.67"/>
    <poly id="389073878" type="building" color="255,230,230" fill="0" layer="-1.00" shape="8690.88,4064.04 8690.81,4079.76 8697.71,4079.91"/>
    <poly id="390584475" type="tourism" color="207,245,201" fill="1" layer="-2.00" shape="8434.70,3013.70 8639.32,3020.11 8623.14,2874.39 8416.89,2875.14 8434.70,3013.70"/>
    <poly id="402324829" type="tourism" color="207,245,201" fill="1" layer="-2.00" shape="8361.37,4298.30 8342.80,4292.22 8350.85,4268.94 8339.18,4264.70 8348.90,4235.57 8361.37,4298.30"/>