<?xml version="1.0" encoding="UTF-8"?>

<!-- generated on Fri Nov 10 03:00:05 2017 by SUMO duarouter Version 0.28.0
<?xml version="1.0" encoding="UTF-8"?>

<configuration xmlns:xsi="http://www.w3.org/2001/XMLSchema-instance" xsi:noNamespaceSchemaLocation="http://sumo.dlr.de/xsd/duarouterConfiguration.xsd">

    <input>
        <net-file value="amirkabir.net.xml"/>
        <trip-files value="trips.trips.xml"/>
    </input>

    <output>
        <output-file value="amirkabir.rou.xml"/>
    </output>

    <processing>
        <ignore-errors value="true"/>
    </processing>

    <time>
        <begin value="0.0"/>
        <end value="100.0"/>
    </time>

    <report>
        <no-warnings value="true"/>
        <no-step-log value="true"/>
    </report>

</configuration>
-->

<routes xmlns:xsi="http://www.w3.org/2001/XMLSchema-instance" xsi:noNamespaceSchemaLocation="http://sumo.dlr.de/xsd/routes_file.xsd">
    <vehicle id="2" depart="2.00">
        <route edges="380240519#0 380240519#1 380240519#2 380240519#3 380240519#4 380240519#5 -382662228#6 387347114#3 456458153#1 456458153#2 456458233#0 456458233#1 456458233#2 456458233#3 456458233#4 456458233#5 456458233#6 456458233#7 -5003754#2 -5003754#1 -461984370#1 -461984370#0"/>
    </vehicle>
    <vehicle id="3" depart="3.00">
        <route edges="380240519#4 380240519#5 -382662228#6 387347114#3 456458153#1 456458153#2 456458233#0 456458233#1 456458233#2 456458233#3 456458233#4 456458233#5 456458233#6 456458233#7 380240716#0 380240716#1 380240716#2 380240716#3 380240716#4 380240716#5 380240716#6 380240716#7 380240716#8 157934984#3 157934984#4"/>
    </vehicle>
    <vehicle id="4" depart="4.00">
        <route edges="425049540#0 425049540#1 425049540#2 425049540#3 4318811#2 4318811#3 4318811#4 4318811#5 4318811#0 5003754#0 5003754#1 5003754#2 380240716#0 380240716#1 380240716#2 380240716#3 380240716#4 380240716#5 380240716#6 463301832#1 463301832#2 463303145 463299695#0 210304183#4 210304183#5 210304100#1 210304100#2"/>
    </vehicle>
    <vehicle id="5" depart="5.00">
        <route edges="485559470#1 485559470#2 485559470#3 485559470#4 456458153#0 456458153#1 456458153#2 456458233#0 456458233#1 456458233#2 456458233#3 456458233#4 456458233#5 456458233#6 456458233#7 380240716#0 380240716#1 380240716#2 380240716#3 380240716#4 380240716#5 380240716#6 380240716#7 380240716#8 -157934984#2 -157934984#1 -157934984#0 467452783#3 157934985#0 157934985#1 463518872#1"/>
    </vehicle>
    <vehicle id="6" depart="6.00">
        <route edges="4318811#1 4318811#2 59276963#0 191536516"/>
    </vehicle>
    <vehicle id="7" depart="7.00">
        <route edges="380240519#0 380240519#1 380240519#2 380240519#3 -461984372"/>
    </vehicle>
    <vehicle id="8" depart="8.00">
        <route edges="380240519#4 380240519#5 -382662228#6 -382662228#5 -382662228#4 456458234#1 456458234#2 456458234#3 456458234#4"/>
    </vehicle>
    <vehicle id="9" depart="9.00">
        <route edges="36326666#2 433012747#4 433012747#5 456458233#5 456458233#6 456458233#7 380240716#0 380240716#1 380240716#2 380240716#3 380240716#4 380240716#5 380240716#6 380240716#7 380240716#8 -157934984#2 -157934984#1 -157934984#0 467452783#3 157934985#0 157934985#1 157934985#2 -463518873 463518873"/>
    </vehicle>
    <vehicle id="10" depart="10.00">
        <route edges="-157934984#4 -157934984#3 -157934984#2 -157934984#1 -157934984#0 467452783#3 467452783#4 467452783#5 463303144#0 71881371#0 71881371#1 71881371#2 71881371#3 71881371#4 71881371#5 71881371#6 71881371#7 71881371#8 71881371#9 71881371#10 456458233#6 456458233#7 380240716#0 380240716#1 380240716#2 380240716#3 467203510#0 -467203510#0"/>
    </vehicle>
    <vehicle id="11" depart="11.00">
        <route edges="4318808#0 4318808#1 4318808#2 4318808#3 4318811#4 4318811#5 4318811#0 5003754#0 5003754#1 5003754#2 380240716#0 380240716#1 380240716#2 380240716#3 380240716#4 380240716#5 380240716#6 380240716#7 380240716#8 -157934984#2 -157934984#1 -157934984#0 467452783#3 157934985#0 157934985#1 463518872#1 4516015#8"/>
    </vehicle>
    <vehicle id="12" depart="12.00">
        <route edges="81109491 463299695#0 210304183#4 210304183#5 210304100#1 210304100#2 210304100#3 210304100#4 210304100#5 210304100#6 456458233#0 456458233#1 456458233#2 456458233#3 456458233#4 -433012747#5 -433012747#4 -433012747#3 36326642#5 36326642#6 36326642#7 36326642#8 36326642#9 36326642#10 36326642#11"/>
    </vehicle>
    <vehicle id="13" depart="13.00">
        <route edges="36326642#5"/>
    </vehicle>
    <vehicle id="14" depart="14.00">
        <route edges="-477974105 36326642#9 36326642#10 36326642#11 36326642#12 36326642#13 36326642#14 36326642#15 36326642#16 36326642#17 36326642#18 36326642#19 380240519#3 380240519#4 380240519#5 380240519#6 456458152#0 456458152#1 456458152#2 -488607353"/>
    </vehicle>
    <vehicle id="17" depart="17.00">
        <route edges="463518872#1 -463518872#1 157934985#2 157934985#3 157934985#4 157934985#5 157934985#6 157934985#7 210304183#2 210304183#3 210304183#4 210304183#5 210304100#1 210304100#2 -181526861#2 -181526861#1 467485530#0"/>
    </vehicle>
    <vehicle id="18" depart="18.00">
        <route edges="71881372#0 157934982 38682897#2 38682897#3 38682897#4 38682897#5 210304098 210304100#0 210304100#1 210304100#2 210304100#3 210304100#4 210304100#5 210304100#6 456458233#0 456458233#1 456458233#2 456458233#3 456458233#4 -433012747#5 -433012747#4 -433012747#3 36326642#5 36326642#6 36326642#7 36326642#8 36326642#9 36326642#10 36326642#11 36326642#12 36326664#0 36326664#1 36326664#2 191541062#0"/>
    </vehicle>
    <vehicle id="19" depart="19.00">
        <route edges="-308260351 308260351 467452783#2 467452783#3 467452783#4 467452783#5 463303144#0 71881371#0 71881371#1 71881371#2 71881371#3 71881371#4 71881371#5 71881371#6 71881371#7 71881371#8 71881371#9 71881371#10 456458233#6 456458233#7 456458233#8 456458233#9"/>
    </vehicle>
    <vehicle id="21" depart="21.00">
        <route edges="38682897#4 210304183#0 210304183#1 210304183#2 466718969#0 466718969#1 466718969#2 157934978#2 470482605#0 470482605#1 470482605#2 470482605#3 463518872#0 463518872#1 4516015#8 467452783#3 157934985#0 157934985#1"/>
    </vehicle>
    <vehicle id="22" depart="22.00">
        <route edges="380240519#0 380240519#1 380240519#2 380240519#3 380240519#4 380240519#5 -382662228#6 387347114#3 456458153#1 456458153#2 456458233#0 456458233#1 456458233#2 456458233#3 456458233#4 456458233#5 456458233#6 456458233#7 -5003754#2 -5003754#1 -5003754#0 4318811#1 4318811#2 4318811#3 4318811#4 36326642#0 464583134"/>
    </vehicle>
    <vehicle id="23" depart="23.00">
        <route edges="210304100#3 210304100#4 210304100#5 210304100#6 456458233#0 456458233#1 456458233#2 456458233#3 456458233#4 456458233#5 456458233#6 456458233#7 380240716#0 380240716#1 380240716#2 380240716#3 380240716#4 380240716#5 380240716#6 380240716#7 380240716#8 380240716#9"/>
    </vehicle>
    <vehicle id="26" depart="26.00">
        <route edges="36326642#5 36326642#6 36326642#7 36326642#8 36326642#9 36326642#10 36326642#11 36326642#12 36326642#13 36326642#14 36326642#15 36326642#16 36326642#17 36326642#18 36326642#19 380240519#3 380240519#4 380240519#5 -382662228#6 387347114#3 456458153#1 456458153#2 456458233#0 456458233#1 456458233#2 456458233#3 456458233#4 -433012747#5 -433012747#4 -433012747#3 433012747#3"/>
    </vehicle>
    <vehicle id="27" depart="27.00">
        <route edges="-308260351 308260351 467452783#2 467452783#3 467452783#4 467452783#5 463303146 463303145 463299695#0 463299695#1 210304179#2 210304104#1 210304104#2 210304104#3 194291013#0 194291013#1 194291013#2"/>
    </vehicle>
    <vehicle id="28" depart="28.00">
        <route edges="380240716#0 380240716#1 380240716#2 380240716#3 380240716#4 380240716#5 380240716#6 380240716#7 380240716#8 -157934984#2 -157934984#1 -157934984#0 467452783#3 157934985#0 157934985#1 -463518872#0"/>
    </vehicle>
    <vehicle id="29" depart="29.00">
        <route edges="191536516 16284720#2 4318808#2 4318808#3 4318811#4 4318811#5 4318811#0 5003754#0 5003754#1 5003754#2 380240716#0 380240716#1 380240716#2 380240716#3 380240716#4 380240716#5 380240716#6 380240716#7 380240716#8 380240716#9"/>
    </vehicle>
    <vehicle id="31" depart="31.00">
        <route edges="157934985#7 210304183#2 210304183#3 210304183#4 210304183#5 210304100#1 210304100#2 210304100#3 210304100#4 210304100#5 210304100#6 456458233#0 456458233#1 456458233#2 456458233#3 456458233#4 -433012747#5 -433012747#4 36326666#3"/>
    </vehicle>
    <vehicle id="32" depart="32.00">
        <route edges="161072040 161072041 470482419 463299695#0 210304183#4 210304183#5 210304100#1 210304100#2 210304100#3 210304100#4 210304100#5 210304100#6 456458233#0 456458233#1 456458233#2 456458233#3 456458233#4 456458233#5 456458233#6 456458233#7 380240716#0 380240716#1 380240716#2 380240716#3 380240716#4 380240716#5 380240716#6 380240716#7 380240716#8 -157934984#2 -157934984#1 -157934984#0 467452783#3 157934985#0 157934985#1 463518872#1"/>
    </vehicle>
    <vehicle id="33" depart="33.00">
        <route edges="380240519#4 380240519#5 -382662228#6 387347114#3 456458153#1 456458153#2 456458233#0 456458233#1 456458233#2 456458233#3 456458233#4 456458233#5 456458233#6 456458233#7 380240716#0 380240716#1 380240716#2 380240716#3 380240716#4 380240716#5 380240716#6 380240716#7 380240716#8 -157934984#2 -157934984#1 -157934984#0 467452783#3 157934985#0 157934985#1 157934985#2 -463518873"/>
    </vehicle>
    <vehicle id="34" depart="34.00">
        <route edges="191541383 433012749#2 433012747#0 433012747#1 -16284720#8 -16284720#7 -16284720#6 -16284720#5 -16284720#4 -16284720#3 4318808#2 4318808#3 4318811#4 4318811#5 4318811#0 5003754#0 5003754#1 5003754#2 380240716#0 380240716#1 380240716#2 380240716#3 380240716#4 380240716#5 380240716#6 463301832#1 463301832#2 -463303146 463303144#0"/>
    </vehicle>
    <vehicle id="35" depart="35.00">
        <route edges="4318808#1 4318808#2 4318808#3 4318811#4 4318811#5 4318811#0 5003754#0 5003754#1 5003754#2 380240716#0 380240716#1 380240716#2 380240716#3 380240716#4 380240716#5 380240716#6 380240716#7 380240716#8 -157934984#2 -157934984#1 -157934984#0 467452783#3 157934985#0 157934985#1 463518872#1 -463518872#1"/>
    </vehicle>
    <vehicle id="36" depart="36.00">
        <route edges="-157934984#4 -157934984#3 -157934984#2 -157934984#1 -157934984#0 467452783#3 467452783#4 467452783#5 463303144#0 71881371#0 71881371#1 71881371#2 71881371#3 71881371#4 71881371#5 71881371#6 71881371#7 71881371#8 71881371#9 71881371#10 456458233#6 456458233#7 -5003754#2 -5003754#1 -5003754#0 4318811#1 4318811#2 4318811#3 4318811#4 36326642#0 36326642#1 36326642#2 36326642#3 36326642#4 -433012747#2 433012747#2"/>
    </vehicle>
    <vehicle id="37" depart="37.00">
        <route edges="461984372 380240519#4 380240519#5 -382662228#6 387347114#3 456458153#1 456458153#2 456458233#0 456458233#1 456458233#2 456458233#3 456458233#4 456458233#5 456458233#6 456458233#7 380240716#0 380240716#1 380240716#2 380240716#3 380240716#4 380240716#5 380240716#6 463301832#1 463301832#2 463303145 463299695#0 210304183#4 210304183#5 210304100#1 210304100#2 -181526861#2 181526861#2"/>
    </vehicle>
    <vehicle id="38" depart="38.00">
        <route edges="425049540#3 4318811#2 4318811#3 4318811#4 4318811#5 4318811#0 5003754#0 5003754#1 5003754#2 380240716#0 380240716#1 380240716#2 380240716#3 380240716#4 380240716#5 380240716#6 380240716#7 380240716#8 -157934984#2 -157934984#1 -157934984#0 467452783#3 157934985#0 157934985#1 463518872#1 308260350#0 308260350#1 308260351 -308260351"/>
    </vehicle>
    <vehicle id="40" depart="40.00">
        <route edges="-433012747#2 433012747#2 433012747#3 36326666#3 36326666#4 36326666#5 36326666#6 36326666#7"/>
    </vehicle>
    <vehicle id="41" depart="41.00">
        <route edges="210304100#3 210304100#4 210304100#5 210304100#6 456458233#0 456458233#1 456458233#2 456458233#3 456458233#4 456458233#5 456458233#6 456458233#7 380240716#0 380240716#1 380240716#2 380240716#3 380240716#4 380240716#5 380240716#6 380240716#7 380240716#8 380240716#9"/>
    </vehicle>
    <vehicle id="42" depart="42.00">
        <route edges="-467485533 181526861#2 210304100#3 210304100#4 210304100#5 210304100#6 456458233#0 456458233#1 456458233#2 456458233#3 456458233#4 456458233#5 456458233#6 456458233#7 380240716#0 380240716#1 380240716#2 380240716#3 380240716#4 467203512 -467203512"/>
    </vehicle>
    <vehicle id="44" depart="44.00">
        <route edges="-4318808#2 4318808#2 4318808#3 4318811#4 4318811#5 4318811#0 5003754#0 5003754#1 5003754#2 380240716#0 380240716#1 380240716#2 380240716#3 380240716#4 380240716#5 380240716#6 463301832#1 463301832#2 463303145 463299695#0 210304183#4 210304183#5 210304100#1 210304100#2 210304100#3"/>
    </vehicle>
    <vehicle id="45" depart="45.00">
        <route edges="380240519#0 380240519#1 380240519#2 380240519#3 380240519#4 380240519#5 -382662228#6 387347114#3 456458153#1 456458153#2 456458233#0 456458233#1 456458233#2 456458233#3 456458233#4 -433012747#5 -433012747#4 -433012747#3 -433012747#2 -16284720#8 -16284720#7 -16284720#6 -433012750 433012749#0 433012749#1 433012749#2"/>
    </vehicle>
    <vehicle id="46" depart="46.00">
        <route edges="485559470#2 485559470#3 485559470#4 456458153#0 456458153#1 456458153#2 456458233#0 456458233#1 456458233#2 456458233#3 456458233#4 456458233#5 456458233#6"/>
    </vehicle>
    <vehicle id="47" depart="47.00">
        <route edges="4516015#8 467452783#3 467452783#4 467452783#5 463303144#0 71881371#0 71881371#1 71881371#2 71881371#3 71881371#4 71881371#5 71881371#6 71881371#7 71881371#8 71881371#9 71881371#10 456458233#6 456458233#7 -5003754#2 -5003754#1 -5003754#0 4318811#1 4318811#2 59276963#0 59276963#1 59276963#2 59276963#3"/>
    </vehicle>
    <vehicle id="48" depart="48.00">
        <route edges="210304100#2 210304100#3 210304100#4 210304100#5 210304100#6 456458233#0 456458233#1 456458233#2 456458233#3 456458233#4 456458233#5 456458233#6 456458233#7 456458233#8 456458233#9"/>
    </vehicle>
    <vehicle id="49" depart="49.00">
        <route edges="467452783#0 467452783#1 467452783#2 467452783#3 467452783#4 467452783#5 463303144#0 71881371#0 71881371#1 71881371#2 71881371#3 71881371#4 71881371#5 71881371#6 71881371#7 71881371#8 71881371#9 71881371#10 456458233#6 456458233#7 456458233#8 191539788 161072166#1"/>
    </vehicle>
    <vehicle id="50" depart="50.00">
        <route edges="157934986 157934985#6 157934985#7 210304183#2 210304183#3 210304183#4 81109498"/>
    </vehicle>
    <vehicle id="54" depart="54.00">
        <route edges="463303145 463299695#0 210304183#4 210304183#5 210304100#1 210304100#2 210304100#3 210304100#4 210304100#5 210304100#6 456458233#0 456458233#1 456458233#2 456458233#3 456458233#4 456458233#5 456458233#6 456458233#7 380240716#0 380240716#1 380240716#2 380240716#3 380240716#4 380240716#5 380240716#6 380240716#7 380240716#8 -157934984#2 -157934984#1 -157934984#0 467452783#3 157934985#0 157934985#1 463518872#1 308260350#0 308260350#1 308260351"/>
    </vehicle>
    <vehicle id="55" depart="55.00">
        <route edges="467452783#3 467452783#4 467452783#5 463303144#0 463303144#1"/>
    </vehicle>
    <vehicle id="56" depart="56.00">
        <route edges="161072040 161072041 470482419 463299695#0 210304183#4 210304183#5 210304100#1 210304100#2 210304100#3 210304100#4 210304100#5 210304100#6 456458233#0 456458233#1 456458233#2 456458233#3 456458233#4 456458233#5 456458233#6 456458233#7 380240716#0 380240716#1 380240716#2 380240716#3 380240716#4 380240716#5 380240716#6 380240716#7 380240716#8 380240716#9"/>
    </vehicle>
    <vehicle id="58" depart="58.00">
        <route edges="380240519#0 380240519#1 380240519#2 380240519#3 380240519#4 380240519#5 -382662228#6 387347114#3 456458153#1 456458153#2 456458233#0 456458233#1 456458233#2 456458233#3 456458233#4 456458233#5 456458233#6 456458233#7 456458233#8 456458233#9"/>
    </vehicle>
    <vehicle id="59" depart="59.00">
        <route edges="308260351 467452783#2 467452783#3 157934985#0 157934985#1 157934985#2 -463518873 463518873"/>
    </vehicle>
    <vehicle id="60" depart="60.00">
        <route edges="36326666#6 36326666#7 456458234#3 36326642#17 36326642#18 36326642#19 380240519#3 380240519#4 380240519#5 -382662228#6 387347114#3 456458153#1 456458153#2 456458233#0 456458233#1 456458233#2 456458233#3 456458233#4 456458233#5 456458233#6 456458233#7 380240716#0 380240716#1 380240716#2 380240716#3 380240716#4 380240716#5 380240716#6 380240716#7 380240716#8 -157934984#2 -157934984#1 -157934984#0 467452783#3 157934985#0 157934985#1 463518872#1 308260350#0 308260350#1 308260351 467452783#2"/>
    </vehicle>
    <vehicle id="62" depart="62.00">
        <route edges="4318808#0 4318808#1 4318808#2 4318808#3 4318811#4 4318811#5 4318811#0 5003754#0 5003754#1 5003754#2 456458233#8"/>
    </vehicle>
    <vehicle id="63" depart="63.00">
        <route edges="380240519#0 380240519#1 380240519#2 380240519#3 380240519#4 380240519#5 -382662228#6 387347114#3 456458153#1 456458153#2 456458233#0 456458233#1 456458233#2 456458233#3 456458233#4 456458233#5 456458233#6 456458233#7 380240716#0 380240716#1 380240716#2 380240716#3 467203510#0"/>
    </vehicle>
    <vehicle id="64" depart="64.00">
        <route edges="463301832#0 380240716#7 380240716#8 -157934984#2 -157934984#1 -157934984#0 467452783#3 157934985#0 157934985#1 157934985#2"/>
    </vehicle>
    <vehicle id="65" depart="65.00">
        <route edges="157934978#1 157934978#2 470480593 463299695#0 210304183#4 210304183#5 210304100#1 210304100#2 210304100#3 210304100#4 210304100#5 210304100#6 456458233#0 456458233#1 456458233#2 456458233#3 456458233#4 -433012747#5 -433012747#4 -433012747#3 -433012747#2 -16284720#8 -16284720#7 -16284720#6 -16284720#5 -16284720#4 -16284720#3 -4318808#1 -4318808#0"/>
    </vehicle>
    <vehicle id="67" depart="67.00">
        <route edges="-463518873 470482605#3 463301830 463303146 463303145 463299695#0 210304183#4 210304183#5 210304100#1 210304100#2 210304100#3 210304100#4 210304100#5 210304100#6 456458234#0 382662228#4 382662228#5 382662228#6 380240519#6 456458152#0 456458152#1 456458152#2 456458152#3 456458152#4 456458152#5 210304097"/>
    </vehicle>
    <vehicle id="68" depart="68.00">
        <route edges="425049540#2 425049540#3 4318811#2 4318811#3 4318811#4 4318811#5 4318811#0 5003754#0 5003754#1 5003754#2 380240716#0 380240716#1 380240716#2 380240716#3 380240716#4 380240716#5 380240716#6 380240716#7 380240716#8 157934984#3 -402324831"/>
    </vehicle>
    <vehicle id="70" depart="70.00">
        <route edges="463518872#1 4516015#8 467452783#3 467452783#4 467452783#5 463303144#0 71881371#0 71881371#1 71881371#2 71881371#3 71881371#4 71881371#5 71881371#6 71881371#7 71881371#8 71881371#9 71881371#10 456458233#6 456458233#7 -5003754#2 -5003754#1 -5003754#0 4318811#1 4318811#2 4318811#3 -4318808#3 -4318808#2 16284720#3 16284720#4 16284720#5 -433012750 433012749#0 -191540422"/>
    </vehicle>
    <vehicle id="72" depart="72.00">
        <route edges="463301832#2 -463303146 463303144#0 71881371#0 71881371#1 71881371#2 71881371#3 71881371#4 71881371#5 71881371#6 71881371#7 71881371#8 71881371#9 71881371#10 456458233#6 456458233#7 380240716#0 380240716#1 380240716#2 380240716#3 380240716#4 467203512 -467203512"/>
    </vehicle>
    <vehicle id="74" depart="74.00">
        <route edges="4318808#1 -4318808#1 -4318808#0"/>
    </vehicle>
    <vehicle id="76" depart="76.00">
        <route edges="157934982 38682897#2 38682897#3 38682897#4 38682897#5 210304098 210304100#0 210304100#1 210304100#2 210304100#3 210304100#4 210304100#5 210304100#6 456458233#0 456458233#1 456458233#2 456458233#3 456458233#4 456458233#5 456458233#6 456458233#7 456458233#8 456458233#9"/>
    </vehicle>
    <vehicle id="77" depart="77.00">
        <route edges="-467485530#0 181526861#1 181526861#2 210304100#3 210304100#4 210304100#5 210304100#6 456458233#0 456458233#1 456458233#2 456458233#3 456458233#4 -433012747#5 -433012747#4 36326666#3 36326666#4 36326666#5"/>
    </vehicle>
    <vehicle id="78" depart="78.00">
        <route edges="-467203508 380240716#3 380240716#4 380240716#5 380240716#6 463301832#1 463301832#2 463303145 463299695#0 210304183#4 210304183#5 210304100#1 210304100#2 210304100#3 210304100#4 210304100#5 210304100#6 456458234#0 456458234#1 456458234#2 456458234#3 36326642#17 36326642#18 36326642#19 36326642#20"/>
    </vehicle>
    <vehicle id="79" depart="79.00">
        <route edges="36326666#3 36326666#4 36326666#5 36326666#6 36326666#7 456458234#3 36326642#17 36326642#18 36326642#19 380240519#3 380240519#4 380240519#5 -382662228#6 387347114#3 456458153#1 456458153#2 456458233#0 456458233#1 456458233#2 456458233#3 456458233#4 456458233#5 456458233#6 456458233#7 380240716#0 380240716#1 380240716#2 380240716#3 380240716#4 380240716#5 380240716#6 380240716#7 380240716#8 380240716#9"/>
    </vehicle>
    <vehicle id="80" depart="80.00">
        <route edges="463301832#0 463301832#1 71881371#1 71881371#2 71881371#3 71881371#4 71881371#5 71881371#6 71881371#7 71881371#8 71881371#9 71881371#10 456458233#6 456458233#7 -5003754#2 -5003754#1 -461984370#1 -461984370#0"/>
    </vehicle>
    <vehicle id="82" depart="82.00">
        <route edges="16284720#3 16284720#4 16284720#5 16284720#6 16284720#7 16284720#8 433012747#2 433012747#3 36326666#3 36326666#4 36326666#5"/>
    </vehicle>
    <vehicle id="83" depart="83.00">
        <route edges="-181526861#2 181526861#2 210304100#3 210304100#4 210304100#5 210304100#6 456458233#0 456458233#1 456458233#2 456458233#3 456458233#4 456458233#5 456458233#6 456458233#7 -5003754#2 -5003754#1 5003754#1"/>
    </vehicle>
    <vehicle id="87" depart="87.00">
        <route edges="16284720#1 16284720#2 4318808#2 4318808#3 4318811#4 4318811#5 4318811#0 5003754#0 5003754#1 5003754#2 380240716#0 380240716#1 380240716#2 380240716#3 380240716#4 380240716#5 380240716#6 380240716#7 380240716#8 -157934984#2 -157934984#1 -157934984#0 467452783#3 157934985#0 157934985#1"/>
    </vehicle>
    <vehicle id="89" depart="89.00">
        <route edges="463301832#1 71881371#1 71881371#2 71881371#3 71881371#4 71881371#5 71881371#6 71881371#7 71881371#8 71881371#9 71881371#10 456458233#6 456458233#7 380240716#0 380240716#1 380240716#2 380240716#3 467203510#0 -467203510#0"/>
    </vehicle>
    <vehicle id="91" depart="91.00">
        <route edges="191542381 36326666#6 36326666#7 456458234#3 36326642#17 36326642#18 36326642#19 380240519#3 380240519#4 380240519#5 -382662228#6 387347114#3 456458153#1 456458153#2 456458233#0 456458233#1 456458233#2 456458233#3 456458233#4 456458233#5 456458233#6 456458233#7 456458233#8 456458233#9"/>
    </vehicle>
    <vehicle id="92" depart="92.00">
        <route edges="4516015#8 467452783#3 467452783#4 467452783#5 463303146 463303145 463299695#0 210304183#4 210304183#5 210304100#1 210304100#2 210304100#3 210304100#4 210304100#5 210304100#6 456458234#0 456458234#1 456458234#2 456458234#3 456458234#4"/>
    </vehicle>
    <vehicle id="93" depart="93.00">
        <route edges="-157934984#4 -157934984#3 -157934984#2 -157934984#1 -157934984#0 467452783#3 467452783#4 467452783#5 463303144#0 463303144#1"/>
    </vehicle>
    <vehicle id="94" depart="94.00">
        <route edges="463301832#1 71881371#1 71881371#2 71881371#3 71881371#4 71881371#5 71881371#6 71881371#7"/>
    </vehicle>
    <vehicle id="95" depart="95.00">
        <route edges="210304183#2 210304183#3 210304183#4 210304183#5 210304100#1 210304100#2 210304100#3 210304100#4 210304100#5 210304100#6 456458233#0 456458233#1 456458233#2 456458233#3 456458233#4 456458233#5 456458233#6 302696298#0 302696298#1"/>
    </vehicle>
    <vehicle id="96" depart="96.00">
        <route edges="456458234#2 456458234#3 36326642#17 36326642#18 36326642#19 380240519#3 380240519#4 380240519#5 -382662228#6 387347114#3 456458153#1 456458153#2 456458233#0 456458233#1 456458233#2 456458233#3 456458233#4 456458233#5 456458233#6 456458233#7 380240716#0 380240716#1 380240716#2 380240716#3 380240716#4 380240716#5 380240716#6 463301832#1 463301832#2 463303145 463299695#0 210304183#4 210304183#5 210304100#1 210304100#2 210304100#3"/>
    </vehicle>
    <vehicle id="98" depart="98.00">
        <route edges="485559470#2 485559470#3 485559470#4 456458153#0 456458153#1 456458153#2 456458233#0 456458233#1 456458233#2 456458233#3 456458233#4 456458233#5 456458233#6 456458233#7 380240716#0 380240716#1 380240716#2 380240716#3 380240716#4 380240716#5 380240716#6 380240716#7 380240716#8 -157934984#2 157934984#2"/>
    </vehicle>
    <vehicle id="99" depart="99.00">
        <route edges="-157934984#4 -157934984#3 -157934984#2 -157934984#1 -157934984#0 467452783#3 467452783#4 467452783#5 463303146 463303145 463299695#0 210304183#4 210304183#5 210304100#1 210304100#2 210304100#3 210304100#4 210304100#5 210304100#6 456458233#0 456458233#1"/>
    </vehicle>
</routes>
